@<TRIPOS>MOLECULE
RES
1500 1200 1 0 1
SMALL
NO_CHARGES
@<TRIPOS>CRYSIN
   40.5500    40.5500    40.5500    90.0000    90.0000    90.0000  1  1
@<TRIPOS>ATOM
       1 _CH2         6.6148    21.7171    22.6453 CH2_sp3       1 RES
       2 _CH2         7.3870    22.1283    21.3779 CH2_sp3       1 RES
       3 _CH2         8.8180    22.6277    21.6508 CH2_sp3       1 RES
       4 _CH3         5.1838    21.2177    22.3724 CH3_sp3       1 RES
       5 _CH3         9.5902    23.0389    20.3834 CH3_sp3       1 RES
       6 _CH2        27.1966     8.1012    20.6826 CH2_sp3       1 RES
       7 _CH2        26.9118     7.7668    19.2065 CH2_sp3       1 RES
       8 _CH2        27.9909     6.8909    18.5432 CH2_sp3       1 RES
       9 _CH3        26.1175     8.9771    21.3458 CH3_sp3       1 RES
      10 _CH3        27.7061     6.5566    17.0672 CH3_sp3       1 RES
      11 _CH2        35.9649    19.3601    29.7078 CH2_sp3       1 RES
      12 _CH2        36.4667    19.0614    28.2828 CH2_sp3       1 RES
      13 _CH2        37.1409    17.6851    28.1318 CH2_sp3       1 RES
      14 _CH3        35.2906    20.7364    29.8587 CH3_sp3       1 RES
      15 _CH3        37.6427    17.3863    26.7069 CH3_sp3       1 RES
      16 _CH2        24.6505    19.1425     6.8085 CH2_sp3       1 RES
      17 _CH2        25.8896    19.1421     7.7230 CH2_sp3       1 RES
      18 _CH2        25.5701    19.3787     9.2108 CH2_sp3       1 RES
      19 _CH3        24.9699    18.9058     5.3207 CH3_sp3       1 RES
      20 _CH3        26.8092    19.3783    10.1253 CH3_sp3       1 RES
      21 _CH2        23.3027     8.3906    13.9438 CH2_sp3       1 RES
      22 _CH2        22.6371     7.2519    13.1489 CH2_sp3       1 RES
      23 _CH2        22.2137     6.0493    14.0126 CH2_sp3       1 RES
      24 _CH3        23.7261     9.5932    13.0801 CH3_sp3       1 RES
      25 _CH3        21.5481     4.9105    13.2177 CH3_sp3       1 RES
      26 _CH2        16.7514    26.2289    19.1485 CH2_sp3       1 RES
      27 _CH2        15.8926    26.3081    17.8726 CH2_sp3       1 RES
      28 _CH2        14.6289    25.4289    17.9126 CH2_sp3       1 RES
      29 _CH3        18.0151    27.1082    19.1085 CH3_sp3       1 RES
      30 _CH3        13.7701    25.5081    16.6367 CH3_sp3       1 RES
      31 _CH2        10.3832    32.4179    25.3625 CH2_sp3       1 RES
      32 _CH2        10.5849    32.9909    23.9474 CH2_sp3       1 RES
      33 _CH2        11.1969    34.4039    23.9252 CH2_sp3       1 RES
      34 _CH3         9.7712    31.0049    25.3848 CH3_sp3       1 RES
      35 _CH3        11.3985    34.9770    22.5101 CH3_sp3       1 RES
      36 _CH2        29.8481     8.7231    24.3617 CH2_sp3       1 RES
      37 _CH2        28.5326     8.6972    25.1620 CH2_sp3       1 RES
      38 _CH2        27.6916     7.4258    24.9436 CH2_sp3       1 RES
      39 _CH3        30.6892     9.9946    24.5801 CH3_sp3       1 RES
      40 _CH3        26.3760     7.3999    25.7438 CH3_sp3       1 RES
      41 _CH2        29.2644    15.5459    23.2831 CH2_sp3       1 RES
      42 _CH2        28.6125    14.5217    22.3356 CH2_sp3       1 RES
      43 _CH2        27.8003    15.1556    21.1910 CH2_sp3       1 RES
      44 _CH3        30.0766    14.9120    24.4277 CH3_sp3       1 RES
      45 _CH3        27.1484    14.1314    20.2436 CH3_sp3       1 RES
      46 _CH2        18.4158     8.2876    11.9149 CH2_sp3       1 RES
      47 _CH2        19.0474     8.3553    13.3178 CH2_sp3       1 RES
      48 _CH2        20.5789     8.5171    13.3081 CH2_sp3       1 RES
      49 _CH3        16.8843     8.1258    11.9246 CH3_sp3       1 RES
      50 _CH3        21.2105     8.5849    14.7109 CH3_sp3       1 RES
      51 _CH2        14.8061    17.9710    17.3680 CH2_sp3       1 RES
      52 _CH2        13.8249    17.2598    18.3182 CH2_sp3       1 RES
      53 _CH2        12.9389    18.2181    19.1357 CH2_sp3       1 RES
      54 _CH3        15.6921    17.0126    16.5505 CH3_sp3       1 RES
      55 _CH3        11.9577    17.5069    20.0859 CH3_sp3       1 RES
      56 _CH2        16.7952    18.5795    13.7525 CH2_sp3       1 RES
      57 _CH2        17.1503    18.0301    12.3584 CH2_sp3       1 RES
      58 _CH2        18.4382    17.1864    12.3270 CH2_sp3       1 RES
      59 _CH3        15.5072    19.4232    13.7838 CH3_sp3       1 RES
      60 _CH3        18.7934    16.6370    10.9329 CH3_sp3       1 RES
      61 _CH2        38.3275    17.9730    33.9960 CH2_sp3       1 RES
      62 _CH2        37.4559    19.2424    33.9713 CH2_sp3       1 RES
      63 _CH2        38.2331    20.5414    34.2547 CH2_sp3       1 RES
      64 _CH3        37.5504    16.6741    33.7126 CH3_sp3       1 RES
      65 _CH3        37.3615    21.8108    34.2300 CH3_sp3       1 RES
      66 _CH2        11.2905    32.0377    16.5619 CH2_sp3       1 RES
      67 _CH2        10.5725    32.6123    17.7971 CH2_sp3       1 RES
      68 _CH2         9.0358    32.5712    17.7038 CH2_sp3       1 RES
      69 _CH3        12.8272    32.0788    16.6551 CH3_sp3       1 RES
      70 _CH3         8.3177    33.1458    18.9390 CH3_sp3       1 RES
      71 _CH2        23.2467    37.4279    23.5744 CH2_sp3       1 RES
      72 _CH2        24.3238    37.5902    22.4857 CH2_sp3       1 RES
      73 _CH2        25.5274    36.6437    22.6493 CH2_sp3       1 RES
      74 _CH3        22.0431    38.3744    23.4108 CH3_sp3       1 RES
      75 _CH3        26.6045    36.8060    21.5605 CH3_sp3       1 RES
      76 _CH2        37.1946    22.7189    21.9191 CH2_sp3       1 RES
      77 _CH2        36.7898    21.3997    21.2354 CH2_sp3       1 RES
      78 _CH2        35.5124    21.5030    20.3814 CH2_sp3       1 RES
      79 _CH3        38.4720    22.6157    22.7730 CH3_sp3       1 RES
      80 _CH3        35.1077    20.1838    19.6977 CH3_sp3       1 RES
      81 _CH2        14.8243    14.8292    16.9012 CH2_sp3       1 RES
      82 _CH2        14.8519    14.1028    18.2588 CH2_sp3       1 RES
      83 _CH2        14.8294    15.0471    19.4751 CH2_sp3       1 RES
      84 _CH3        14.8468    13.8849    15.6849 CH3_sp3       1 RES
      85 _CH3        14.8570    14.3206    20.8327 CH3_sp3       1 RES
      86 _CH2         1.9774    17.6269     7.8663 CH2_sp3       1 RES
      87 _CH2         2.4277    18.3338     6.5744 CH2_sp3       1 RES
      88 _CH2         2.0110    17.6046     5.2836 CH2_sp3       1 RES
      89 _CH3         2.3942    18.3561     9.1572 CH3_sp3       1 RES
      90 _CH3         2.4612    18.3115     3.9916 CH3_sp3       1 RES
      91 _CH2        15.2349     6.4272     7.8058 CH2_sp3       1 RES
      92 _CH2        14.2891     6.5367     9.0163 CH2_sp3       1 RES
      93 _CH2        12.7947     6.4589     8.6525 CH2_sp3       1 RES
      94 _CH3        16.7293     6.5050     8.1696 CH3_sp3       1 RES
      95 _CH3        11.8490     6.5684     9.8630 CH3_sp3       1 RES
      96 _CH2        19.3293    23.2120    22.4898 CH2_sp3       1 RES
      97 _CH2        19.2707    22.1302    21.3953 CH2_sp3       1 RES
      98 _CH2        19.9054    20.7886    21.8061 CH2_sp3       1 RES
      99 _CH3        18.6946    24.5537    22.0790 CH3_sp3       1 RES
     100 _CH3        19.8468    19.7067    20.7116 CH3_sp3       1 RES
     101 _CH2        20.6813    32.7957    15.5043 CH2_sp3       1 RES
     102 _CH2        21.5003    33.2138    16.7396 CH2_sp3       1 RES
     103 _CH2        21.0146    32.5806    18.0568 CH2_sp3       1 RES
     104 _CH3        21.1670    33.4289    14.1872 CH3_sp3       1 RES
     105 _CH3        21.8336    32.9987    19.2921 CH3_sp3       1 RES
     106 _CH2        30.5607     3.8017     9.5745 CH2_sp3       1 RES
     107 _CH2        29.0399     3.7173     9.8020 CH2_sp3       1 RES
     108 _CH2        28.5564     2.3423    10.2993 CH2_sp3       1 RES
     109 _CH3        31.0443     5.1766     9.0772 CH3_sp3       1 RES
     110 _CH3        27.0356     2.2579    10.5269 CH3_sp3       1 RES
     111 _CH2        35.2961    34.8543     7.1270 CH2_sp3       1 RES
     112 _CH2        35.9912    34.9237     5.7545 CH2_sp3       1 RES
     113 _CH2        37.4801    34.5312     5.7859 CH2_sp3       1 RES
     114 _CH3        33.8073    35.2467     7.0956 CH3_sp3       1 RES
     115 _CH3        38.1752    34.6007     4.4135 CH3_sp3       1 RES
     116 _CH2        19.5397    15.5420    32.4469 CH2_sp3       1 RES
     117 _CH2        19.7200    16.6327    33.5190 CH2_sp3       1 RES
     118 _CH2        20.8646    17.6194    33.2225 CH2_sp3       1 RES
     119 _CH3        18.3951    14.5553    32.7434 CH3_sp3       1 RES
     120 _CH3        21.0449    18.7101    34.2946 CH3_sp3       1 RES
     121 _CH2        14.5827    14.5451     8.1025 CH2_sp3       1 RES
     122 _CH2        14.9577    13.0620     8.2796 CH2_sp3       1 RES
     123 _CH2        14.5454    12.1661     7.0967 CH2_sp3       1 RES
     124 _CH3        14.9950    15.4410     9.2853 CH3_sp3       1 RES
     125 _CH3        14.9204    10.6830     7.2738 CH3_sp3       1 RES
     126 _CH2        20.5350    10.6665    27.3869 CH2_sp3       1 RES
     127 _CH2        21.4538     9.9749    28.4112 CH2_sp3       1 RES
     128 _CH2        22.5620     9.1137    27.7774 CH2_sp3       1 RES
     129 _CH3        19.4268    11.5278    28.0206 CH3_sp3       1 RES
     130 _CH3        23.4808     8.4221    28.8017 CH3_sp3       1 RES
     131 _CH2        23.0449    24.5376    11.2708 CH2_sp3       1 RES
     132 _CH2        22.0543    24.9317    12.3821 CH2_sp3       1 RES
     133 _CH2        21.3496    26.2801    12.1438 CH2_sp3       1 RES
     134 _CH3        23.7496    23.1892    11.5091 CH3_sp3       1 RES
     135 _CH3        20.3590    26.6742    13.2551 CH3_sp3       1 RES
     136 _CH2        34.2689     7.7604    29.7264 CH2_sp3       1 RES
     137 _CH2        35.6343     8.4703    29.7831 CH2_sp3       1 RES
     138 _CH2        36.7559     7.6219    30.4107 CH2_sp3       1 RES
     139 _CH3        33.1474     8.6088    29.0988 CH3_sp3       1 RES
     140 _CH3        38.1213     8.3318    30.4674 CH3_sp3       1 RES
     141 _CH2         8.9764    38.5587    14.3452 CH2_sp3       1 RES
     142 _CH2         9.7328    37.4911    15.1575 CH2_sp3       1 RES
     143 _CH2        10.3957    38.0316    16.4381 CH2_sp3       1 RES
     144 _CH3         8.3134    38.0181    13.0646 CH3_sp3       1 RES
     145 _CH3        11.1521    36.9640    17.2504 CH3_sp3       1 RES
     146 _CH2         8.6345    29.9560    15.9614 CH2_sp3       1 RES
     147 _CH2         8.0066    29.8435    17.3630 CH2_sp3       1 RES
     148 _CH2         6.4730    29.7028    17.3529 CH2_sp3       1 RES
     149 _CH3        10.1680    30.0967    15.9715 CH3_sp3       1 RES
     150 _CH3         5.8451    29.5903    18.7546 CH3_sp3       1 RES
     151 _CH2        10.5816    29.2584    36.7053 CH2_sp3       1 RES
     152 _CH2         9.7269    30.2993    35.9586 CH2_sp3       1 RES
     153 _CH2        10.0615    31.7588    36.3183 CH2_sp3       1 RES
     154 _CH3        10.2471    27.7989    36.3455 CH3_sp3       1 RES
     155 _CH3         9.2068    32.7998    35.5716 CH3_sp3       1 RES
     156 _CH2        21.5150     4.0680    28.3230 CH2_sp3       1 RES
     157 _CH2        21.8570     4.6325    29.7144 CH2_sp3       1 RES
     158 _CH2        22.5393     6.0128    29.6800 CH2_sp3       1 RES
     159 _CH3        20.8328     2.6878    28.3573 CH3_sp3       1 RES
     160 _CH3        22.8813     6.5773    31.0714 CH3_sp3       1 RES
     161 _CH2        16.8820    32.3593    27.2531 CH2_sp3       1 RES
     162 _CH2        17.7982    32.9176    28.3577 CH2_sp3       1 RES
     163 _CH2        19.1394    33.4694    27.8396 CH2_sp3       1 RES
     164 _CH3        15.5408    31.8074    27.7712 CH3_sp3       1 RES
     165 _CH3        20.0557    34.0277    28.9443 CH3_sp3       1 RES
     166 _CH2        24.5334     9.5141    34.6554 CH2_sp3       1 RES
     167 _CH2        25.6065     8.9411    33.7110 CH2_sp3       1 RES
     168 _CH2        26.5792     7.9595    34.3906 CH2_sp3       1 RES
     169 _CH3        23.5606    10.4957    33.9758 CH3_sp3       1 RES
     170 _CH3        27.6523     7.3865    33.4462 CH3_sp3       1 RES
     171 _CH2        16.0509    33.9302    21.1217 CH2_sp3       1 RES
     172 _CH2        15.2350    35.2355    21.1665 CH2_sp3       1 RES
     173 _CH2        15.4763    36.0820    22.4301 CH2_sp3       1 RES
     174 _CH3        15.8096    33.0837    19.8581 CH3_sp3       1 RES
     175 _CH3        14.6604    37.3873    22.4749 CH3_sp3       1 RES
     176 _CH2        19.7611    29.7313    25.8826 CH2_sp3       1 RES
     177 _CH2        19.7879    29.0784    27.2771 CH2_sp3       1 RES
     178 _CH2        18.3973    28.6945    27.8159 CH2_sp3       1 RES
     179 _CH3        21.1518    30.1151    25.3439 CH3_sp3       1 RES
     180 _CH3        18.4241    28.0416    29.2104 CH3_sp3       1 RES
     181 _CH2        35.1520    25.1385     3.9564 CH2_sp3       1 RES
     182 _CH2        36.2876    24.1822     4.3657 CH2_sp3       1 RES
     183 _CH2        35.8059    22.7803     4.7832 CH2_sp3       1 RES
     184 _CH3        35.6337    26.5404     3.5389 CH3_sp3       1 RES
     185 _CH3        36.9415    21.8239     5.1924 CH3_sp3       1 RES
     186 _CH2        16.5863    13.5444     2.7902 CH2_sp3       1 RES
     187 _CH2        16.3735    12.0694     3.1783 CH2_sp3       1 RES
     188 _CH2        16.0363    11.1511     1.9889 CH2_sp3       1 RES
     189 _CH3        16.9236    14.4626     3.9795 CH3_sp3       1 RES
     190 _CH3        15.8234     9.6761     2.3770 CH3_sp3       1 RES
     191 _CH2         7.8284    17.2740    24.0624 CH2_sp3       1 RES
     192 _CH2         6.8375    18.2116    23.3477 CH2_sp3       1 RES
     193 _CH2         5.3642    17.9725    23.7270 CH2_sp3       1 RES
     194 _CH3         9.3017    17.5131    23.6831 CH3_sp3       1 RES
     195 _CH3         4.3733    18.9101    23.0124 CH3_sp3       1 RES
     196 _CH2        15.1157    31.6086    14.4763 CH2_sp3       1 RES
     197 _CH2        14.8112    30.3431    15.2992 CH2_sp3       1 RES
     198 _CH2        15.5599    30.2747    16.6432 CH2_sp3       1 RES
     199 _CH3        14.3670    31.6770    13.1323 CH3_sp3       1 RES
     200 _CH3        15.2555    29.0091    17.4662 CH3_sp3       1 RES
     201 _CH2         9.4484    14.1582    15.7146 CH2_sp3       1 RES
     202 _CH2         9.0080    12.7173    15.3959 CH2_sp3       1 RES
     203 _CH2         7.7944    12.6275    14.4522 CH2_sp3       1 RES
     204 _CH3        10.6620    14.2480    16.6583 CH3_sp3       1 RES
     205 _CH3         7.3541    11.1866    14.1335 CH3_sp3       1 RES
     206 _CH2        30.6698     4.3222    31.5791 CH2_sp3       1 RES
     207 _CH2        30.6266     5.1000    32.9075 CH2_sp3       1 RES
     208 _CH2        29.2031     5.3703    33.4292 CH2_sp3       1 RES
     209 _CH3        32.0933     4.0520    31.0574 CH3_sp3       1 RES
     210 _CH3        29.1600     6.1481    34.7576 CH3_sp3       1 RES
     211 _CH2         3.9248     6.8266    28.5313 CH2_sp3       1 RES
     212 _CH2         3.7860     7.8133    29.7055 CH2_sp3       1 RES
     213 _CH2         3.0982     9.1394    29.3313 CH2_sp3       1 RES
     214 _CH3         4.6126     5.5005    28.9055 CH3_sp3       1 RES
     215 _CH3         2.9593    10.1261    30.5055 CH3_sp3       1 RES
     216 _CH2        11.1579    25.8273    28.8358 CH2_sp3       1 RES
     217 _CH2        11.5774    25.0374    30.0894 CH2_sp3       1 RES
     218 _CH2        12.1869    25.9083    31.2037 CH2_sp3       1 RES
     219 _CH3        10.5484    24.9564    27.7215 CH3_sp3       1 RES
     220 _CH3        12.6064    25.1184    32.4573 CH3_sp3       1 RES
     221 _CH2         2.4206    15.5214    26.4452 CH2_sp3       1 RES
     222 _CH2         3.6329    14.9784    27.2243 CH2_sp3       1 RES
     223 _CH2         4.0533    13.5543    26.8157 CH2_sp3       1 RES
     224 _CH3         2.0002    16.9454    26.8537 CH3_sp3       1 RES
     225 _CH3         5.2656    13.0113    27.5948 CH3_sp3       1 RES
     226 _CH2         6.3196    18.6689    19.1643 CH2_sp3       1 RES
     227 _CH2         6.1100    17.9982    20.5347 CH2_sp3       1 RES
     228 _CH2         5.4952    16.5885    20.4547 CH2_sp3       1 RES
     229 _CH3         6.9344    20.0785    19.2443 CH3_sp3       1 RES
     230 _CH3         5.2857    15.9179    21.8251 CH3_sp3       1 RES
     231 _CH2        10.4123    29.0111    32.3868 CH2_sp3       1 RES
     232 _CH2         9.2363    30.0038    32.4437 CH2_sp3       1 RES
     233 _CH2         9.6644    31.4830    32.4392 CH2_sp3       1 RES
     234 _CH3         9.9842    27.5319    32.3913 CH3_sp3       1 RES
     235 _CH3         8.4884    32.4757    32.4961 CH3_sp3       1 RES
     236 _CH2        18.9917     6.3192     3.3291 CH2_sp3       1 RES
     237 _CH2        20.5171     6.1256     3.2439 CH2_sp3       1 RES
     238 _CH2        21.2589     6.4073     4.5637 CH2_sp3       1 RES
     239 _CH3        18.2499     6.0374     2.0093 CH3_sp3       1 RES
     240 _CH3        22.7843     6.2137     4.4785 CH3_sp3       1 RES
     241 _CH2        36.0424    12.2999    29.2495 CH2_sp3       1 RES
     242 _CH2        36.5681    12.2463    27.8030 CH2_sp3       1 RES
     243 _CH2        38.0328    11.7853    27.6855 CH2_sp3       1 RES
     244 _CH3        34.5778    12.7609    29.3670 CH3_sp3       1 RES
     245 _CH3        38.5585    11.7318    26.2390 CH3_sp3       1 RES
     246 _CH2         8.9574    11.9084     8.7413 CH2_sp3       1 RES
     247 _CH2         8.5215    13.3854     8.7428 CH2_sp3       1 RES
     248 _CH2         7.4882    13.7324     9.8308 CH2_sp3       1 RES
     249 _CH3         9.9906    11.5613     7.6534 CH3_sp3       1 RES
     250 _CH3         7.0523    15.2094     9.8322 CH3_sp3       1 RES
     251 _CH2        25.0132    22.5515    31.7581 CH2_sp3       1 RES
     252 _CH2        25.1459    22.0887    30.2952 CH2_sp3       1 RES
     253 _CH2        25.1533    23.2399    29.2723 CH2_sp3       1 RES
     254 _CH3        25.0059    21.4004    32.7810 CH3_sp3       1 RES
     255 _CH3        25.2860    22.7771    27.8095 CH3_sp3       1 RES
     256 _CH2        10.4688    30.5064    21.0336 CH2_sp3       1 RES
     257 _CH2        11.3287    29.3523    21.5814 CH2_sp3       1 RES
     258 _CH2        12.6439    29.1309    20.8115 CH2_sp3       1 RES
     259 _CH3         9.1536    30.7278    21.8036 CH3_sp3       1 RES
     260 _CH3        13.5038    27.9768    21.3593 CH3_sp3       1 RES
     261 _CH2        29.4133    11.2990     9.8853 CH2_sp3       1 RES
     262 _CH2        29.8502    10.8393    11.2887 CH2_sp3       1 RES
     263 _CH2        29.5184     9.3674    11.5972 CH2_sp3       1 RES
     264 _CH3        29.7450    12.7708     9.5768 CH3_sp3       1 RES
     265 _CH3        29.9553     8.9077    13.0006 CH3_sp3       1 RES
     266 _CH2        32.4037    31.3488    32.3221 CH2_sp3       1 RES
     267 _CH2        31.5829    31.2998    33.6242 CH2_sp3       1 RES
     268 _CH2        32.2386    30.4749    34.7473 CH2_sp3       1 RES
     269 _CH3        31.7480    32.1736    31.1990 CH3_sp3       1 RES
     270 _CH3        31.4178    30.4260    36.0494 CH3_sp3       1 RES
     271 _CH2        16.6429    27.1124    34.1954 CH2_sp3       1 RES
     272 _CH2        16.5509    28.6462    34.2976 CH2_sp3       1 RES
     273 _CH2        15.2712    29.2396    33.6796 CH2_sp3       1 RES
     274 _CH3        17.9225    26.5190    34.8134 CH3_sp3       1 RES
     275 _CH3        15.1793    30.7734    33.7817 CH3_sp3       1 RES
     276 _CH2         5.3253    30.7206    22.4576 CH2_sp3       1 RES
     277 _CH2         5.1519    30.2918    20.9888 CH2_sp3       1 RES
     278 _CH2         3.7445    29.7652    20.6519 CH2_sp3       1 RES
     279 _CH3         6.7327    31.2473    22.7945 CH3_sp3       1 RES
     280 _CH3         3.5711    29.3364    19.1831 CH3_sp3       1 RES
     281 _CH2        19.2240    23.6192     8.4366 CH2_sp3       1 RES
     282 _CH2        18.6930    24.8284     9.2288 CH2_sp3       1 RES
     283 _CH2        17.8778    25.8232     8.3818 CH2_sp3       1 RES
     284 _CH3        20.0392    22.6245     9.2837 CH3_sp3       1 RES
     285 _CH3        17.3468    27.0323     9.1740 CH3_sp3       1 RES
     286 _CH2        13.6654    37.2876    26.8627 CH2_sp3       1 RES
     287 _CH2        12.9140    36.9118    28.1534 CH2_sp3       1 RES
     288 _CH2        11.9808    35.6959    28.0035 CH2_sp3       1 RES
     289 _CH3        14.5986    38.5034    27.0127 CH3_sp3       1 RES
     290 _CH3        11.2294    35.3201    29.2941 CH3_sp3       1 RES
     291 _CH2        16.0630     5.7992    11.2013 CH2_sp3       1 RES
     292 _CH2        17.5103     5.5366    11.6575 CH2_sp3       1 RES
     293 _CH2        18.4132     4.9382    10.5629 CH2_sp3       1 RES
     294 _CH3        15.1600     6.3976    12.2959 CH3_sp3       1 RES
     295 _CH3        19.8605     4.6756    11.0191 CH3_sp3       1 RES
     296 _CH2        22.1261    10.0002     3.7895 CH2_sp3       1 RES
     297 _CH2        20.6908    10.0899     3.2386 CH2_sp3       1 RES
     298 _CH2        20.3481    11.4495     2.6018 CH2_sp3       1 RES
     299 _CH3        22.4688     8.6406     4.4264 CH3_sp3       1 RES
     300 _CH3        18.9128    11.5392     2.0509 CH3_sp3       1 RES
     301 _CH2        10.3690     5.3284    28.1583 CH2_sp3       1 RES
     302 _CH2         9.5197     4.2381    28.8376 CH2_sp3       1 RES
     303 _CH2         8.2424     3.8653    28.0622 CH2_sp3       1 RES
     304 _CH3        11.6464     5.7011    28.9336 CH3_sp3       1 RES
     305 _CH3         7.3930     2.7750    28.7415 CH3_sp3       1 RES
     306 _CH2        12.2995    25.9519    26.7209 CH2_sp3       1 RES
     307 _CH2        13.3422    24.8681    26.3899 CH2_sp3       1 RES
     308 _CH2        12.9035    23.4409    26.7671 CH2_sp3       1 RES
     309 _CH3        12.7381    27.3791    26.3437 CH3_sp3       1 RES
     310 _CH3        13.9462    22.3570    26.4360 CH3_sp3       1 RES
     311 _CH2        17.5627    20.2279    32.2329 CH2_sp3       1 RES
     312 _CH2        18.1361    19.7712    30.8785 CH2_sp3       1 RES
     313 _CH2        17.4451    20.4086    29.6588 CH2_sp3       1 RES
     314 _CH3        18.2538    19.5905    33.4526 CH3_sp3       1 RES
     315 _CH3        18.0185    19.9519    28.3044 CH3_sp3       1 RES
     316 _CH2        18.5004     8.7604     7.9008 CH2_sp3       1 RES
     317 _CH2        19.6795     9.7432     7.7769 CH2_sp3       1 RES
     318 _CH2        21.0216     9.0712     7.4322 CH2_sp3       1 RES
     319 _CH3        17.1583     9.4324     8.2456 CH3_sp3       1 RES
     320 _CH3        22.2006    10.0541     7.3083 CH3_sp3       1 RES
     321 _CH2        31.2623    32.9406    23.8804 CH2_sp3       1 RES
     322 _CH2        31.2632    32.2292    25.2463 CH2_sp3       1 RES
     323 _CH2        31.3975    30.6978    25.1547 CH2_sp3       1 RES
     324 _CH3        31.1280    34.4720    23.9719 CH3_sp3       1 RES
     325 _CH3        31.3984    29.9864    26.5206 CH3_sp3       1 RES
     326 _CH2        28.5447    29.7407     5.4791 CH2_sp3       1 RES
     327 _CH2        28.7331    28.5145     6.3915 CH2_sp3       1 RES
     328 _CH2        30.1919    28.0335     6.5010 CH2_sp3       1 RES
     329 _CH3        27.0858    30.2217     5.3696 CH3_sp3       1 RES
     330 _CH3        30.3803    26.8073     7.4135 CH3_sp3       1 RES
     331 _CH2         6.7773    30.3060    13.9045 CH2_sp3       1 RES
     332 _CH2         8.0800    30.8663    13.3039 CH2_sp3       1 RES
     333 _CH2         8.2990    30.4941    11.8257 CH2_sp3       1 RES
     334 _CH3         6.5582    30.6782    15.3827 CH3_sp3       1 RES
     335 _CH3         9.6017    31.0544    11.2251 CH3_sp3       1 RES
     336 _CH2        26.3098    34.6116    19.8462 CH2_sp3       1 RES
     337 _CH2        27.2109    33.6185    19.0890 CH2_sp3       1 RES
     338 _CH2        27.7776    34.1692    17.7672 CH2_sp3       1 RES
     339 _CH3        25.7431    34.0608    21.1681 CH3_sp3       1 RES
     340 _CH3        28.6787    33.1761    17.0100 CH3_sp3       1 RES
     341 _CH2        18.7780    29.5774     3.8850 CH2_sp3       1 RES
     342 _CH2        19.6300    30.7389     4.4296 CH2_sp3       1 RES
     343 _CH2        20.4016    30.3991     5.7183 CH2_sp3       1 RES
     344 _CH3        18.0063    29.9171     2.5963 CH3_sp3       1 RES
     345 _CH3        21.2537    31.5606     6.2629 CH3_sp3       1 RES
     346 _CH2        30.9562     7.2632    21.5936 CH2_sp3       1 RES
     347 _CH2        31.8672     8.1676    20.7429 CH2_sp3       1 RES
     348 _CH2        31.2867     8.5187    19.3604 CH2_sp3       1 RES
     349 _CH3        31.5367     6.9121    22.9761 CH3_sp3       1 RES
     350 _CH3        32.1978     9.4232    18.5098 CH3_sp3       1 RES
     351 _CH2         3.4435    10.4192    19.7680 CH2_sp3       1 RES
     352 _CH2         3.7791    10.1347    18.2921 CH2_sp3       1 RES
     353 _CH2         5.2496     9.7485    18.0474 CH2_sp3       1 RES
     354 _CH3         1.9729    10.8054    20.0127 CH3_sp3       1 RES
     355 _CH3         5.5852     9.4640    16.5715 CH3_sp3       1 RES
     356 _CH2        23.1799    32.1917     7.9877 CH2_sp3       1 RES
     357 _CH2        24.6088    32.3210     8.5472 CH2_sp3       1 RES
     358 _CH2        25.3896    30.9942     8.5839 CH2_sp3       1 RES
     359 _CH3        22.3991    33.5186     7.9510 CH3_sp3       1 RES
     360 _CH3        26.8185    31.1235     9.1435 CH3_sp3       1 RES
     361 _CH2        21.3464     7.5146    25.9673 CH2_sp3       1 RES
     362 _CH2        20.8762     8.8391    25.3379 CH2_sp3       1 RES
     363 _CH2        21.6544     9.2418    24.0714 CH2_sp3       1 RES
     364 _CH3        20.5683     7.1119    27.2337 CH3_sp3       1 RES
     365 _CH3        21.1842    10.5663    23.4420 CH3_sp3       1 RES
     366 _CH2        24.3964    35.7038    27.8391 CH2_sp3       1 RES
     367 _CH2        25.2699    35.5167    26.5847 CH2_sp3       1 RES
     368 _CH2        24.5791    34.7363    25.4510 CH2_sp3       1 RES
     369 _CH3        25.0872    36.4842    28.9728 CH3_sp3       1 RES
     370 _CH3        25.4527    34.5492    24.1966 CH3_sp3       1 RES
     371 _CH2        17.7862     7.4633    29.6764 CH2_sp3       1 RES
     372 _CH2        18.2145     7.2891    28.2075 CH2_sp3       1 RES
     373 _CH2        17.8974     8.5029    27.3144 CH2_sp3       1 RES
     374 _CH3        18.1034     6.2494    30.5695 CH3_sp3       1 RES
     375 _CH3        18.3257     8.3287    25.8454 CH3_sp3       1 RES
     376 _CH2         4.6956    10.4827    10.7463 CH2_sp3       1 RES
     377 _CH2         5.4576    11.7577    11.1526 CH2_sp3       1 RES
     378 _CH2         6.9524    11.5282    11.4435 CH2_sp3       1 RES
     379 _CH3         3.2008    10.7122    10.4555 CH3_sp3       1 RES
     380 _CH3         7.7144    12.8033    11.8498 CH3_sp3       1 RES
     381 _CH2        12.8878     8.5569    21.5392 CH2_sp3       1 RES
     382 _CH2        12.9158     9.4963    22.7592 CH2_sp3       1 RES
     383 _CH2        14.1238    10.4510    22.7869 CH2_sp3       1 RES
     384 _CH3        11.6797     7.6022    21.5114 CH3_sp3       1 RES
     385 _CH3        14.1519    11.3904    24.0069 CH3_sp3       1 RES
     386 _CH2        28.1610    24.1523    30.8563 CH2_sp3       1 RES
     387 _CH2        27.9570    25.6716    30.7088 CH2_sp3       1 RES
     388 _CH2        26.4841    26.0937    30.5541 CH2_sp3       1 RES
     389 _CH3        29.6339    23.7302    31.0110 CH3_sp3       1 RES
     390 _CH3        26.2801    27.6130    30.4066 CH3_sp3       1 RES
     391 _CH2        23.9889    33.5700    28.1255 CH2_sp3       1 RES
     392 _CH2        24.9785    33.7439    29.2925 CH2_sp3       1 RES
     393 _CH2        26.2696    32.9171    29.1474 CH2_sp3       1 RES
     394 _CH3        22.6978    34.3968    28.2706 CH3_sp3       1 RES
     395 _CH3        27.2593    33.0910    30.3145 CH3_sp3       1 RES
     396 _CH2         7.0996    11.6164    37.3830 CH2_sp3       1 RES
     397 _CH2         6.7920    10.1363    37.0889 CH2_sp3       1 RES
     398 _CH2         5.5409     9.6013    37.8100 CH2_sp3       1 RES
     399 _CH3         8.3507    12.1514    36.6618 CH3_sp3       1 RES
     400 _CH3         5.2332     8.1213    37.5159 CH3_sp3       1 RES
     401 _CH2        34.8348    19.9000    25.9871 CH2_sp3       1 RES
     402 _CH2        33.4891    19.1752    26.1753 CH2_sp3       1 RES
     403 _CH2        33.0874    18.9726    27.6481 CH2_sp3       1 RES
     404 _CH3        35.2366    20.1026    24.5143 CH3_sp3       1 RES
     405 _CH3        31.7417    18.2478    27.8363 CH3_sp3       1 RES
     406 _CH2        28.1161    29.8573    24.4583 CH2_sp3       1 RES
     407 _CH2        27.3553    29.4293    23.1896 CH2_sp3       1 RES
     408 _CH2        27.9767    28.2212    22.4643 CH2_sp3       1 RES
     409 _CH3        27.4948    31.0654    25.1836 CH3_sp3       1 RES
     410 _CH3        27.2159    27.7931    21.1956 CH3_sp3       1 RES
     411 _CH2        33.3710     2.8417    33.9164 CH2_sp3       1 RES
     412 _CH2        33.2638     3.4497    35.3273 CH2_sp3       1 RES
     413 _CH2        32.0017     3.0223    36.0993 CH2_sp3       1 RES
     414 _CH3        34.6331     3.2691    33.1444 CH3_sp3       1 RES
     415 _CH3        31.8945     3.6302    37.5101 CH3_sp3       1 RES
     416 _CH2         5.4971    28.1704    36.5260 CH2_sp3       1 RES
     417 _CH2         6.5262    27.0252    36.5599 CH2_sp3       1 RES
     418 _CH2         6.0634    25.7906    37.3557 CH2_sp3       1 RES
     419 _CH3         5.9599    29.4050    35.7302 CH3_sp3       1 RES
     420 _CH3         7.0925    24.6454    37.3896 CH3_sp3       1 RES
     421 _CH2        37.8760     6.1020    17.2530 CH2_sp3       1 RES
     422 _CH2        36.6170     6.9710    17.0751 CH2_sp3       1 RES
     423 _CH2        36.6134     8.2511    17.9311 CH2_sp3       1 RES
     424 _CH3        37.8795     4.8219    16.3970 CH3_sp3       1 RES
     425 _CH3        35.3545     9.1201    17.7532 CH3_sp3       1 RES
     426 _CH2        28.8773     3.9443    35.8906 CH2_sp3       1 RES
     427 _CH2        29.7698     4.4407    37.0433 CH2_sp3       1 RES
     428 _CH2        30.0825     5.9476    36.9889 CH2_sp3       1 RES
     429 _CH3        28.5645     2.4373    35.9449 CH3_sp3       1 RES
     430 _CH3        30.9751     6.4440    38.1416 CH3_sp3       1 RES
     431 _CH2         5.4012     8.0987     4.2982 CH2_sp3       1 RES
     432 _CH2         4.2880     8.9779     3.6986 CH2_sp3       1 RES
     433 _CH2         3.3085     8.2141     2.7883 CH2_sp3       1 RES
     434 _CH3         6.3808     8.8625     5.2084 CH3_sp3       1 RES
     435 _CH3         2.1953     9.0933     2.1888 CH3_sp3       1 RES
     436 _CH2        31.3748     7.5727     9.6315 CH2_sp3       1 RES
     437 _CH2        32.8288     7.6913     9.1380 CH2_sp3       1 RES
     438 _CH2        33.6842     6.4382     9.4024 CH2_sp3       1 RES
     439 _CH3        30.5195     8.8257     9.3671 CH3_sp3       1 RES
     440 _CH3        35.1382     6.5568     8.9090 CH3_sp3       1 RES
     441 _CH2         8.8475    21.8446    31.8367 CH2_sp3       1 RES
     442 _CH2         8.8178    21.5963    33.3563 CH2_sp3       1 RES
     443 _CH2        10.0113    22.2069    34.1142 CH2_sp3       1 RES
     444 _CH3         7.6540    21.2340    31.0788 CH3_sp3       1 RES
     445 _CH3         9.9816    21.9586    35.6337 CH3_sp3       1 RES
     446 _CH2        21.5507    18.0045     9.8435 CH2_sp3       1 RES
     447 _CH2        21.1465    18.4948     8.4407 CH2_sp3       1 RES
     448 _CH2        20.1629    19.6797     8.4506 CH2_sp3       1 RES
     449 _CH3        22.5343    16.8196     9.8336 CH3_sp3       1 RES
     450 _CH3        19.7587    20.1699     7.0477 CH3_sp3       1 RES
     451 _CH2        34.1290    20.1468     5.2469 CH2_sp3       1 RES
     452 _CH2        34.4193    20.8432     6.5895 CH2_sp3       1 RES
     453 _CH2        33.2227    20.8584     7.5588 CH2_sp3       1 RES
     454 _CH3        35.3256    20.1316     4.2776 CH3_sp3       1 RES
     455 _CH3        33.5129    21.5547     8.9013 CH3_sp3       1 RES
     456 _CH2         4.4775    21.2663     8.0655 CH2_sp3       1 RES
     457 _CH2         4.7004    20.3890     6.8196 CH2_sp3       1 RES
     458 _CH2         5.4058    19.0519     7.1130 CH2_sp3       1 RES
     459 _CH3         3.7720    22.6034     7.7721 CH3_sp3       1 RES
     460 _CH3         5.6287    18.1746     5.8671 CH3_sp3       1 RES
     461 _CH2        30.5754    12.5683    21.4984 CH2_sp3       1 RES
     462 _CH2        29.3700    12.1299    22.3506 CH2_sp3       1 RES
     463 _CH2        29.5794    12.3011    23.8667 CH2_sp3       1 RES
     464 _CH3        30.3660    12.3972    19.9823 CH3_sp3       1 RES
     465 _CH3        28.3740    11.8627    24.7190 CH3_sp3       1 RES
     466 _CH2         4.6436    32.3959    19.5216 CH2_sp3       1 RES
     467 _CH2         5.4246    33.4812    20.2856 CH2_sp3       1 RES
     468 _CH2         6.8812    33.0968    20.6051 CH2_sp3       1 RES
     469 _CH3         3.1869    32.7803    19.2021 CH3_sp3       1 RES
     470 _CH3         7.6623    34.1821    21.3692 CH3_sp3       1 RES
     471 _CH2        25.1763    12.3853    14.4660 CH2_sp3       1 RES
     472 _CH2        24.7993    12.6222    12.9918 CH2_sp3       1 RES
     473 _CH2        25.5548    11.7192    11.9991 CH2_sp3       1 RES
     474 _CH3        24.4208    13.2883    15.4587 CH3_sp3       1 RES
     475 _CH3        25.1779    11.9562    10.5249 CH3_sp3       1 RES
     476 _CH2        37.7008     8.9903    25.9730 CH2_sp3       1 RES
     477 _CH2        36.6635     7.8810    25.7183 CH2_sp3       1 RES
     478 _CH2        35.8728     7.4629    26.9719 CH2_sp3       1 RES
     479 _CH3        38.4916     9.4084    24.7194 CH3_sp3       1 RES
     480 _CH3        34.8354     6.3536    26.7171 CH3_sp3       1 RES
     481 _CH2        17.7533    26.9801    32.0750 CH2_sp3       1 RES
     482 _CH2        18.0741    26.4337    30.6714 CH2_sp3       1 RES
     483 _CH2        18.8442    25.1001    30.6792 CH2_sp3       1 RES
     484 _CH3        16.9832    28.3137    32.0672 CH3_sp3       1 RES
     485 _CH3        19.1649    24.5538    29.2755 CH3_sp3       1 RES
     486 _CH2         9.3328    37.8143    31.5384 CH2_sp3       1 RES
     487 _CH2         8.1552    38.1148    32.4841 CH2_sp3       1 RES
     488 _CH2         8.5510    38.2002    33.9699 CH2_sp3       1 RES
     489 _CH3         8.9369    37.7289    30.0526 CH3_sp3       1 RES
     490 _CH3         7.3734    38.5007    34.9156 CH3_sp3       1 RES
     491 _CH2        31.6737    26.9144    19.9929 CH2_sp3       1 RES
     492 _CH2        30.7638    27.7299    20.9303 CH2_sp3       1 RES
     493 _CH2        31.4335    28.9871    21.5156 CH2_sp3       1 RES
     494 _CH3        31.0040    25.6572    19.4076 CH3_sp3       1 RES
     495 _CH3        30.5237    29.8026    22.4530 CH3_sp3       1 RES
     496 _CH2        12.4677    37.8336    13.0383 CH2_sp3       1 RES
     497 _CH2        11.9098    36.3989    12.9941 CH2_sp3       1 RES
     498 _CH2        11.9125    35.6835    14.3578 CH2_sp3       1 RES
     499 _CH3        12.4650    38.5490    11.6745 CH3_sp3       1 RES
     500 _CH3        11.3546    34.2488    14.3137 CH3_sp3       1 RES
     501 _CH2         6.8462    10.9293    23.2476 CH2_sp3       1 RES
     502 _CH2         7.2439    10.0879    22.0206 CH2_sp3       1 RES
     503 _CH2         8.6348     9.4364    22.1321 CH2_sp3       1 RES
     504 _CH3         5.4552    11.5808    23.1361 CH3_sp3       1 RES
     505 _CH3         9.0325     8.5949    20.9051 CH3_sp3       1 RES
     506 _CH2        17.7912    18.0307    25.6269 CH2_sp3       1 RES
     507 _CH2        17.6124    19.4642    25.0936 CH2_sp3       1 RES
     508 _CH2        16.2425    19.7228    24.4392 CH2_sp3       1 RES
     509 _CH3        19.1611    17.7721    26.2813 CH3_sp3       1 RES
     510 _CH3        16.0637    21.1564    23.9059 CH3_sp3       1 RES
     511 _CH2        12.3104     9.8176     5.3407 CH2_sp3       1 RES
     512 _CH2        12.6558     9.4819     6.8035 CH2_sp3       1 RES
     513 _CH2        11.6350    10.0144     7.8262 CH2_sp3       1 RES
     514 _CH3        13.3312     9.2851     4.3180 CH3_sp3       1 RES
     515 _CH3        11.9805     9.6787     9.2889 CH3_sp3       1 RES
     516 _CH2        16.2854     9.8924    22.9888 CH2_sp3       1 RES
     517 _CH2        17.1533     9.5694    21.7583 CH2_sp3       1 RES
     518 _CH2        16.7434    10.3324    20.4850 CH2_sp3       1 RES
     519 _CH3        16.6953     9.1295    24.2621 CH3_sp3       1 RES
     520 _CH3        17.6113    10.0094    19.2545 CH3_sp3       1 RES
     521 _CH2        35.5860    25.2371     7.2492 CH2_sp3       1 RES
     522 _CH2        36.3620    26.5212     6.9016 CH2_sp3       1 RES
     523 _CH2        35.4930    27.6284     6.2767 CH2_sp3       1 RES
     524 _CH3        36.4550    24.1299     7.8741 CH3_sp3       1 RES
     525 _CH3        36.2690    28.9124     5.9292 CH3_sp3       1 RES
     526 _CH2         6.6660    20.6692    13.5610 CH2_sp3       1 RES
     527 _CH2         6.3452    21.8326    12.6045 CH2_sp3       1 RES
     528 _CH2         6.2390    21.4165    11.1256 CH2_sp3       1 RES
     529 _CH3         6.7722    21.0854    15.0399 CH3_sp3       1 RES
     530 _CH3         5.9181    22.5799    10.1690 CH3_sp3       1 RES
     531 _CH2         9.2487     4.8604    31.7782 CH2_sp3       1 RES
     532 _CH2        10.3430     4.0197    31.0944 CH2_sp3       1 RES
     533 _CH2        11.7562     4.6212    31.2059 CH2_sp3       1 RES
     534 _CH3         7.8354     4.2589    31.6667 CH3_sp3       1 RES
     535 _CH3        12.8505     3.7806    30.5221 CH3_sp3       1 RES
     536 _CH2        37.3157     4.9207    29.0621 CH2_sp3       1 RES
     537 _CH2        36.5368     3.5988    28.9302 CH2_sp3       1 RES
     538 _CH2        35.3295     3.6755    27.9771 CH2_sp3       1 RES
     539 _CH3        38.5229     4.8440    30.0151 CH3_sp3       1 RES
     540 _CH3        34.5506     2.3536    27.8452 CH3_sp3       1 RES
     541 _CH2        13.1787    10.9476    13.6785 CH2_sp3       1 RES
     542 _CH2        13.9306    11.2924    12.3795 CH2_sp3       1 RES
     543 _CH2        14.4932    10.0661    11.6371 CH2_sp3       1 RES
     544 _CH3        12.6161    12.1740    14.4210 CH3_sp3       1 RES
     545 _CH3        15.2451    10.4109    10.3381 CH3_sp3       1 RES
     546 _CH2        25.9937    10.8965     7.3582 CH2_sp3       1 RES
     547 _CH2        26.2286    10.5967     8.8503 CH2_sp3       1 RES
     548 _CH2        25.1883     9.6446     9.4692 CH2_sp3       1 RES
     549 _CH3        27.0340    11.8486     6.7393 CH3_sp3       1 RES
     550 _CH3        25.4232     9.3448    10.9614 CH3_sp3       1 RES
     551 _CH2        15.0050    35.5835    18.0118 CH2_sp3       1 RES
     552 _CH2        14.0314    36.3636    18.9146 CH2_sp3       1 RES
     553 _CH2        14.5256    37.7701    19.3007 CH2_sp3       1 RES
     554 _CH3        14.5108    34.1769    17.6257 CH3_sp3       1 RES
     555 _CH3        13.5520    38.5502    20.2035 CH3_sp3       1 RES
     556 _CH2         5.7704    10.4099    25.7091 CH2_sp3       1 RES
     557 _CH2         6.1290    10.4862    27.2049 CH2_sp3       1 RES
     558 _CH2         7.5551    10.9971    27.4818 CH2_sp3       1 RES
     559 _CH3         4.3443     9.8990    25.4322 CH3_sp3       1 RES
     560 _CH3         7.9137    11.0735    28.9776 CH3_sp3       1 RES
     561 _CH2        27.5350    28.7045    28.7819 CH2_sp3       1 RES
     562 _CH2        27.7257    27.4438    27.9182 CH2_sp3       1 RES
     563 _CH2        26.6720    26.3487    28.1673 CH2_sp3       1 RES
     564 _CH3        28.5887    29.7997    28.5327 CH3_sp3       1 RES
     565 _CH3        26.8626    25.0880    27.3036 CH3_sp3       1 RES
     566 _CH2         5.9490     8.2044    12.8720 CH2_sp3       1 RES
     567 _CH2         5.7966     6.8965    12.0734 CH2_sp3       1 RES
     568 _CH2         6.9173     6.6563    11.0449 CH2_sp3       1 RES
     569 _CH3         4.8283     8.4446    13.9005 CH3_sp3       1 RES
     570 _CH3         6.7648     5.3484    10.2463 CH3_sp3       1 RES
     571 _CH2        19.4644    38.1425     6.7882 CH2_sp3       1 RES
     572 _CH2        19.2420    37.0800     7.8806 CH2_sp3       1 RES
     573 _CH2        20.0771    37.3070     9.1544 CH2_sp3       1 RES
     574 _CH3        18.6292    37.9156     5.5144 CH3_sp3       1 RES
     575 _CH3        19.8547    36.2444    10.2467 CH3_sp3       1 RES
     576 _CH2        14.5045    14.9294    13.4008 CH2_sp3       1 RES
     577 _CH2        13.6665    14.0847    12.4232 CH2_sp3       1 RES
     578 _CH2        14.4989    13.3600    11.3492 CH2_sp3       1 RES
     579 _CH3        13.6722    15.6541    14.4749 CH3_sp3       1 RES
     580 _CH3        13.6608    12.5153    10.3716 CH3_sp3       1 RES
     581 _CH2        21.6513    29.3252    33.2105 CH2_sp3       1 RES
     582 _CH2        20.9874    30.5330    33.8977 CH2_sp3       1 RES
     583 _CH2        21.5994    31.8908    33.5060 CH2_sp3       1 RES
     584 _CH3        21.0393    27.9674    33.6021 CH3_sp3       1 RES
     585 _CH3        20.9355    33.0986    34.1932 CH3_sp3       1 RES
     586 _CH2        31.7698    23.9621    22.4093 CH2_sp3       1 RES
     587 _CH2        32.5133    23.7238    23.7366 CH2_sp3       1 RES
     588 _CH2        32.3600    22.2960    24.2929 CH2_sp3       1 RES
     589 _CH3        31.9231    25.3900    21.8530 CH3_sp3       1 RES
     590 _CH3        33.1036    22.0577    25.6202 CH3_sp3       1 RES
     591 _CH2        17.8271    24.5038    33.0246 CH2_sp3       1 RES
     592 _CH2        18.8251    23.3320    32.9750 CH2_sp3       1 RES
     593 _CH2        20.3010    23.7681    32.9199 CH2_sp3       1 RES
     594 _CH3        16.3512    24.0677    33.0797 CH3_sp3       1 RES
     595 _CH3        21.2989    22.5962    32.8702 CH3_sp3       1 RES
     596 _CH2        27.2269    22.7415     8.7489 CH2_sp3       1 RES
     597 _CH2        27.6322    22.7316    10.2345 CH2_sp3       1 RES
     598 _CH2        26.4688    22.4356    11.1992 CH2_sp3       1 RES
     599 _CH3        28.3902    23.0375     7.7842 CH3_sp3       1 RES
     600 _CH3        26.8741    22.4257    12.6849 CH3_sp3       1 RES
     601 _CH2        34.0372    12.1288    25.3287 CH2_sp3       1 RES
     602 _CH2        33.7675    13.0405    26.5402 CH2_sp3       1 RES
     603 _CH2        34.0904    14.5254    26.2909 CH2_sp3       1 RES
     604 _CH3        33.7143    10.6438    25.5781 CH3_sp3       1 RES
     605 _CH3        33.8207    15.4371    27.5023 CH3_sp3       1 RES
     606 _CH2        36.0615    13.1929     5.9490 CH2_sp3       1 RES
     607 _CH2        36.0811    13.7811     4.5259 CH2_sp3       1 RES
     608 _CH2        37.4923    13.9216     3.9256 CH2_sp3       1 RES
     609 _CH3        34.6503    13.0524     6.5494 CH3_sp3       1 RES
     610 _CH3        37.5119    14.5098     2.5025 CH3_sp3       1 RES
     611 _CH2        22.5992    35.8808    17.6859 CH2_sp3       1 RES
     612 _CH2        22.1585    36.0930    16.2257 CH2_sp3       1 RES
     613 _CH2        20.6989    36.5599    16.0734 CH2_sp3       1 RES
     614 _CH3        24.0588    35.4139    17.8382 CH3_sp3       1 RES
     615 _CH3        20.2582    36.7721    14.6131 CH3_sp3       1 RES
     616 _CH2        31.9128    17.6093     5.7110 CH2_sp3       1 RES
     617 _CH2        32.6777    17.3799     7.0278 CH2_sp3       1 RES
     618 _CH2        34.0483    16.7019     6.8461 CH2_sp3       1 RES
     619 _CH3        30.5421    18.2874     5.8928 CH3_sp3       1 RES
     620 _CH3        34.8132    16.4725     8.1629 CH3_sp3       1 RES
     621 _CH2         7.6134    23.6461    19.4476 CH2_sp3       1 RES
     622 _CH2         8.2642    23.3615    18.0812 CH2_sp3       1 RES
     623 _CH2         9.3004    22.2225    18.1059 CH2_sp3       1 RES
     624 _CH3         6.5773    24.7852    19.4228 CH3_sp3       1 RES
     625 _CH3         9.9512    21.9379    16.7395 CH3_sp3       1 RES
     626 _CH2        31.6015    15.1851    32.8130 CH2_sp3       1 RES
     627 _CH2        32.3623    16.3762    32.2014 CH2_sp3       1 RES
     628 _CH2        33.3094    15.9899    31.0501 CH2_sp3       1 RES
     629 _CH3        30.6545    15.5714    33.9644 CH3_sp3       1 RES
     630 _CH3        34.0702    17.1810    30.4384 CH3_sp3       1 RES
     631 _CH2        31.4667    23.7930    26.4757 CH2_sp3       1 RES
     632 _CH2        32.1938    23.8991    27.8291 CH2_sp3       1 RES
     633 _CH2        33.7137    24.1160    27.7082 CH2_sp3       1 RES
     634 _CH3        29.9468    23.5761    26.5966 CH3_sp3       1 RES
     635 _CH3        34.4409    24.2221    29.0616 CH3_sp3       1 RES
     636 _CH2        23.4893    11.9655    17.2055 CH2_sp3       1 RES
     637 _CH2        24.8868    11.4369    16.8329 CH2_sp3       1 RES
     638 _CH2        24.8790    10.3831    15.7099 CH2_sp3       1 RES
     639 _CH3        23.4971    13.0193    18.3285 CH3_sp3       1 RES
     640 _CH3        26.2766     9.8544    15.3373 CH3_sp3       1 RES
     641 _CH2        34.1509    35.2913    31.0107 CH2_sp3       1 RES
     642 _CH2        34.7459    36.6969    30.8055 CH2_sp3       1 RES
     643 _CH2        35.7521    37.1160    31.8934 CH2_sp3       1 RES
     644 _CH3        33.1447    34.8721    29.9228 CH3_sp3       1 RES
     645 _CH3        36.3470    38.5216    31.6882 CH3_sp3       1 RES
     646 _CH2         5.2497    23.1877    24.2496 CH2_sp3       1 RES
     647 _CH2         3.8322    23.4575    23.7116 CH2_sp3       1 RES
     648 _CH2         3.6886    23.2496    22.1925 CH2_sp3       1 RES
     649 _CH3         5.3933    23.3956    25.7687 CH3_sp3       1 RES
     650 _CH3         2.2711    23.5195    21.6545 CH3_sp3       1 RES
     651 _CH2        22.2249    34.6224    22.7469 CH2_sp3       1 RES
     652 _CH2        22.2454    34.5241    24.2836 CH2_sp3       1 RES
     653 _CH2        22.3213    33.0818    24.8180 CH2_sp3       1 RES
     654 _CH3        22.1489    36.0647    22.2124 CH3_sp3       1 RES
     655 _CH3        22.3418    32.9835    26.3547 CH3_sp3       1 RES
     656 _CH2        24.3950     9.9381    22.8849 CH2_sp3       1 RES
     657 _CH2        23.8955    11.3845    22.7120 CH2_sp3       1 RES
     658 _CH2        24.3520    12.3425    23.8280 CH2_sp3       1 RES
     659 _CH3        23.9384     8.9801    21.7689 CH3_sp3       1 RES
     660 _CH3        23.8525    13.7889    23.6551 CH3_sp3       1 RES
     661 _CH2        21.1250    12.8514    20.6772 CH2_sp3       1 RES
     662 _CH2        21.6223    11.4641    20.2305 CH2_sp3       1 RES
     663 _CH2        21.2296    10.3207    21.1845 CH2_sp3       1 RES
     664 _CH3        21.5176    13.9947    19.7232 CH3_sp3       1 RES
     665 _CH3        21.7270     8.9334    20.7378 CH3_sp3       1 RES
     666 _CH2        37.6577    29.5126    10.3657 CH2_sp3       1 RES
     667 _CH2        36.6754    29.2110     9.2187 CH2_sp3       1 RES
     668 _CH2        35.7963    27.9692     9.4571 CH2_sp3       1 RES
     669 _CH3        38.5368    30.7543    10.1272 CH3_sp3       1 RES
     670 _CH3        34.8140    27.6676     8.3101 CH3_sp3       1 RES
     671 _CH2         6.4167    34.0887    29.9739 CH2_sp3       1 RES
     672 _CH2         6.5633    35.5716    30.3626 CH2_sp3       1 RES
     673 _CH2         6.6094    36.5327    29.1603 CH2_sp3       1 RES
     674 _CH3         6.3707    33.1275    31.1762 CH3_sp3       1 RES
     675 _CH3         6.7560    38.0156    29.5490 CH3_sp3       1 RES
     676 _CH2         9.2754    26.2185    13.2395 CH2_sp3       1 RES
     677 _CH2         8.2673    25.5462    14.1900 CH2_sp3       1 RES
     678 _CH2         8.4294    24.0184    14.2961 CH2_sp3       1 RES
     679 _CH3         9.1132    27.7463    13.1334 CH3_sp3       1 RES
     680 _CH3         7.4214    23.3461    15.2466 CH3_sp3       1 RES
     681 _CH2        12.0525    32.8742    31.3301 CH2_sp3       1 RES
     682 _CH2        10.8052    33.4515    30.6355 CH2_sp3       1 RES
     683 _CH2        10.5455    32.8729    29.2321 CH2_sp3       1 RES
     684 _CH3        12.3122    33.4528    32.7334 CH3_sp3       1 RES
     685 _CH3         9.2982    33.4501    28.5375 CH3_sp3       1 RES
     686 _CH2        19.8664    37.2514    30.1333 CH2_sp3       1 RES
     687 _CH2        20.6050    37.2490    28.7819 CH2_sp3       1 RES
     688 _CH2        21.3770    38.5486    28.4877 CH2_sp3       1 RES
     689 _CH3        19.0944    35.9517    30.4274 CH3_sp3       1 RES
     690 _CH3        22.1155    38.5462    27.1363 CH3_sp3       1 RES
     691 _CH2        29.8132     5.2261    12.7478 CH2_sp3       1 RES
     692 _CH2        30.1961     5.2599    14.2391 CH2_sp3       1 RES
     693 _CH2        31.6663     4.8953    14.5167 CH2_sp3       1 RES
     694 _CH3        28.3430     5.5908    12.4701 CH3_sp3       1 RES
     695 _CH3        32.0492     4.9291    16.0080 CH3_sp3       1 RES
     696 _CH2        12.7806    12.7344    18.6066 CH2_sp3       1 RES
     697 _CH2        12.2034    13.6013    19.7411 CH2_sp3       1 RES
     698 _CH2        11.1874    14.6573    19.2676 CH2_sp3       1 RES
     699 _CH3        13.7966    11.6785    19.0801 CH3_sp3       1 RES
     700 _CH3        10.6102    15.5242    20.4021 CH3_sp3       1 RES
     701 _CH2        24.6728    29.2632    17.1430 CH2_sp3       1 RES
     702 _CH2        24.1144    30.4197    16.2933 CH2_sp3       1 RES
     703 _CH2        22.9755    30.0056    15.3429 CH2_sp3       1 RES
     704 _CH3        25.8117    29.6773    18.0934 CH3_sp3       1 RES
     705 _CH3        22.4171    31.1622    14.4932 CH3_sp3       1 RES
     706 _CH2        16.2032    28.8535    27.6375 CH2_sp3       1 RES
     707 _CH2        16.1125    29.8854    28.7770 CH2_sp3       1 RES
     708 _CH2        15.5995    29.3051    30.1081 CH2_sp3       1 RES
     709 _CH3        16.7161    29.4338    26.3064 CH3_sp3       1 RES
     710 _CH3        15.5088    30.3370    31.2476 CH3_sp3       1 RES
     711 _CH2        19.4505    35.3305    20.0814 CH2_sp3       1 RES
     712 _CH2        20.0367    36.2282    21.1869 CH2_sp3       1 RES
     713 _CH2        19.5054    37.6735    21.1675 CH2_sp3       1 RES
     714 _CH3        19.9818    33.8852    20.1007 CH3_sp3       1 RES
     715 _CH3        20.0917    38.5712    22.2730 CH3_sp3       1 RES
     716 _CH2        10.4175    16.2106    11.5419 CH2_sp3       1 RES
     717 _CH2        11.2859    14.9650    11.2856 CH2_sp3       1 RES
     718 _CH2        10.5283    13.6323    11.4320 CH2_sp3       1 RES
     719 _CH3        11.1751    17.5434    11.3956 CH3_sp3       1 RES
     720 _CH3        11.3967    12.3866    11.1757 CH3_sp3       1 RES
     721 _CH2        34.5346    23.7835    17.8196 CH2_sp3       1 RES
     722 _CH2        34.6234    24.5420    16.4823 CH2_sp3       1 RES
     723 _CH2        33.2650    25.0357    15.9508 CH2_sp3       1 RES
     724 _CH3        35.8930    23.2898    18.3512 CH3_sp3       1 RES
     725 _CH3        33.3538    25.7942    14.6135 CH3_sp3       1 RES
     726 _CH2        30.7522    14.3182    38.2389 CH2_sp3       1 RES
     727 _CH2        29.3561    14.1802    37.6037 CH2_sp3       1 RES
     728 _CH2        28.6631    15.5251    37.3162 CH2_sp3       1 RES
     729 _CH3        31.4452    12.9733    38.5264 CH3_sp3       1 RES
     730 _CH3        27.2670    15.3872    36.6810 CH3_sp3       1 RES
     731 _CH2        16.2151    37.2820    31.7369 CH2_sp3       1 RES
     732 _CH2        15.2403    36.4095    30.9243 CH2_sp3       1 RES
     733 _CH2        14.7380    35.1637    31.6775 CH2_sp3       1 RES
     734 _CH3        16.7174    38.5278    30.9837 CH3_sp3       1 RES
     735 _CH3        13.7633    34.2912    30.8650 CH3_sp3       1 RES
     736 _CH2        12.5667    17.1748    26.6741 CH2_sp3       1 RES
     737 _CH2        11.8089    17.3225    25.3416 CH2_sp3       1 RES
     738 _CH2        11.8852    18.7342    24.7309 CH2_sp3       1 RES
     739 _CH3        12.4904    15.7631    27.2849 CH3_sp3       1 RES
     740 _CH3        11.1274    18.8819    23.3984 CH3_sp3       1 RES
     741 _CH2        11.5492     7.2900    14.3547 CH2_sp3       1 RES
     742 _CH2        11.7530     5.9338    13.6543 CH2_sp3       1 RES
     743 _CH2        12.0276     6.0443    12.1430 CH2_sp3       1 RES
     744 _CH3        11.2747     7.1794    15.8660 CH3_sp3       1 RES
     745 _CH3        12.2314     4.6881    11.4425 CH3_sp3       1 RES
     746 _CH2        24.2357     2.4494    25.9152 CH2_sp3       1 RES
     747 _CH2        22.7230     2.3800    26.1954 CH2_sp3       1 RES
     748 _CH2        21.8450     2.8007    25.0022 CH2_sp3       1 RES
     749 _CH3        25.1136     2.0287    27.1084 CH3_sp3       1 RES
     750 _CH3        20.3323     2.7313    25.2824 CH3_sp3       1 RES
     751 _CH2        28.8247    17.8995    10.9865 CH2_sp3       1 RES
     752 _CH2        29.2844    19.3689    10.9508 CH2_sp3       1 RES
     753 _CH2        29.3351    19.9752     9.5361 CH2_sp3       1 RES
     754 _CH3        28.7740    17.2933    12.4012 CH3_sp3       1 RES
     755 _CH3        29.7947    21.4445     9.5004 CH3_sp3       1 RES
     756 _CH2        22.6580    28.7443    20.1350 CH2_sp3       1 RES
     757 _CH2        23.8265    29.7204    20.3659 CH2_sp3       1 RES
     758 _CH2        23.6671    31.0706    19.6427 CH2_sp3       1 RES
     759 _CH3        22.8174    27.3941    20.8583 CH3_sp3       1 RES
     760 _CH3        24.8356    32.0467    19.8736 CH3_sp3       1 RES
     761 _CH2        25.8356    14.1272    18.0292 CH2_sp3       1 RES
     762 _CH2        27.3037    14.5827    17.9363 CH2_sp3       1 RES
     763 _CH2        28.0420    14.0662    16.6874 CH2_sp3       1 RES
     764 _CH3        25.0973    14.6437    19.2781 CH3_sp3       1 RES
     765 _CH3        29.5101    14.5217    16.5944 CH3_sp3       1 RES
     766 _CH2        17.3586     6.4160     4.8655 CH2_sp3       1 RES
     767 _CH2        18.5361     6.4801     5.8559 CH2_sp3       1 RES
     768 _CH2        19.3196     5.1605     5.9838 CH2_sp3       1 RES
     769 _CH3        16.5752     7.7357     4.7376 CH3_sp3       1 RES
     770 _CH3        20.4971     5.2246     6.9742 CH3_sp3       1 RES
     771 _CH2         9.4952    32.7575     6.9989 CH2_sp3       1 RES
     772 _CH2         8.3844    32.3949     8.0019 CH2_sp3       1 RES
     773 _CH2         8.7398    32.7025     9.4684 CH2_sp3       1 RES
     774 _CH3         9.1398    32.4499     5.5323 CH3_sp3       1 RES
     775 _CH3         7.6290    32.3399    10.4715 CH3_sp3       1 RES
     776 _CH2        26.7832     5.5550     7.6927 CH2_sp3       1 RES
     777 _CH2        27.0312     6.0226     9.1389 CH2_sp3       1 RES
     778 _CH2        28.2633     6.9322     9.3005 CH2_sp3       1 RES
     779 _CH3        25.5511     4.6453     7.5311 CH3_sp3       1 RES
     780 _CH3        28.5113     7.3998    10.7467 CH3_sp3       1 RES
     781 _CH2        25.5358     5.2575    24.3687 CH2_sp3       1 RES
     782 _CH2        25.5745     4.8623    25.8566 CH2_sp3       1 RES
     783 _CH2        24.7669     5.7986    26.7747 CH2_sp3       1 RES
     784 _CH3        26.3433     4.3212    23.4507 CH3_sp3       1 RES
     785 _CH3        24.8056     5.4033    28.2626 CH3_sp3       1 RES
     786 _CH2         9.7268     9.2722    30.3151 CH2_sp3       1 RES
     787 _CH2        10.4425     8.5527    29.1568 CH2_sp3       1 RES
     788 _CH2         9.7808     8.7660    27.7826 CH2_sp3       1 RES
     789 _CH3        10.3885     9.0589    31.6892 CH3_sp3       1 RES
     790 _CH3        10.4965     8.0465    26.6243 CH3_sp3       1 RES
     791 _CH2        37.5340    11.3120     6.4498 CH2_sp3       1 RES
     792 _CH2        38.0161    11.5057     7.8995 CH2_sp3       1 RES
     793 _CH2        37.0231    11.0005     8.9627 CH2_sp3       1 RES
     794 _CH3        38.5271    11.8172     5.3867 CH3_sp3       1 RES
     795 _CH3        37.5052    11.1943    10.4124 CH3_sp3       1 RES
     796 _CH2         8.9559     6.8272     3.8735 CH2_sp3       1 RES
     797 _CH2         8.5194     6.8637     5.3499 CH2_sp3       1 RES
     798 _CH2         9.3494     5.9504     6.2712 CH2_sp3       1 RES
     799 _CH3         8.1260     7.7404     2.9522 CH3_sp3       1 RES
     800 _CH3         8.9128     5.9869     7.7476 CH3_sp3       1 RES
     801 _CH2        22.4306    14.4605    16.2309 CH2_sp3       1 RES
     802 _CH2        21.2035    14.4431    17.1612 CH2_sp3       1 RES
     803 _CH2        20.8148    13.0386    17.6591 CH2_sp3       1 RES
     804 _CH3        22.8193    15.8650    15.7330 CH3_sp3       1 RES
     805 _CH3        19.5877    13.0212    18.5895 CH3_sp3       1 RES
     806 _CH2        29.0553    13.2466    12.8043 CH2_sp3       1 RES
     807 _CH2        29.2078    12.7308    14.2473 CH2_sp3       1 RES
     808 _CH2        29.7695    11.3003    14.3451 CH2_sp3       1 RES
     809 _CH3        28.4936    14.6772    12.7065 CH3_sp3       1 RES
     810 _CH3        29.9220    10.7845    15.7881 CH3_sp3       1 RES
     811 _CH2        17.3696    38.0440    19.4830 CH2_sp3       1 RES
     812 _CH2        18.7727    37.5739    19.0565 CH2_sp3       1 RES
     813 _CH2        19.5087    38.5595    18.1298 CH2_sp3       1 RES
     814 _CH3        16.6337    37.0584    20.4097 CH3_sp3       1 RES
     815 _CH3        20.9118    38.0894    17.7032 CH3_sp3       1 RES
     816 _CH2         7.3945     3.1331     6.4458 CH2_sp3       1 RES
     817 _CH2         6.8516     3.3107     5.0156 CH2_sp3       1 RES
     818 _CH2         5.4742     3.9961     4.9491 CH2_sp3       1 RES
     819 _CH3         8.7720     2.4478     6.5123 CH3_sp3       1 RES
     820 _CH3         4.9313     4.1737     3.5190 CH3_sp3       1 RES
     821 _CH2        29.7497     5.5870    22.4486 CH2_sp3       1 RES
     822 _CH2        29.8733     4.1461    21.9192 CH2_sp3       1 RES
     823 _CH2        30.9511     3.9680    20.8337 CH2_sp3       1 RES
     824 _CH3        28.6719     5.7652    23.5341 CH3_sp3       1 RES
     825 _CH3        31.0747     2.5271    20.3044 CH3_sp3       1 RES
     826 _CH2        33.7813    27.0867    12.0207 CH2_sp3       1 RES
     827 _CH2        32.2729    27.3687    11.8905 CH2_sp3       1 RES
     828 _CH2        31.5993    26.6422    10.7115 CH2_sp3       1 RES
     829 _CH3        34.4549    27.8133    13.1997 CH3_sp3       1 RES
     830 _CH3        30.0910    26.9242    10.5814 CH3_sp3       1 RES
     831 _CH2        10.1288    13.4336     4.7154 CH2_sp3       1 RES
     832 _CH2        11.6269    13.7299     4.9137 CH2_sp3       1 RES
     833 _CH2        12.4292    13.8073     3.6014 CH2_sp3       1 RES
     834 _CH3         9.3265    13.3562     6.0276 CH3_sp3       1 RES
     835 _CH3        13.9273    14.1036     3.7997 CH3_sp3       1 RES
     836 _CH2        13.8230    31.5078     7.4060 CH2_sp3       1 RES
     837 _CH2        14.1518    30.3554     8.3732 CH2_sp3       1 RES
     838 _CH2        14.7993    29.1338     7.6949 CH2_sp3       1 RES
     839 _CH3        13.1756    32.7294     8.0843 CH3_sp3       1 RES
     840 _CH3        15.1281    27.9814     8.6621 CH3_sp3       1 RES
     841 _CH2        11.2144    18.1173     6.6899 CH2_sp3       1 RES
     842 _CH2        11.1721    17.0480     7.7974 CH2_sp3       1 RES
     843 _CH2        12.1468    15.8766     7.5746 CH2_sp3       1 RES
     844 _CH3        10.2397    19.2886     6.9127 CH3_sp3       1 RES
     845 _CH3        12.1046    14.8073     8.6820 CH3_sp3       1 RES
     846 _CH2        15.5625    22.6915    34.9224 CH2_sp3       1 RES
     847 _CH2        16.3175    22.9641    36.2367 CH2_sp3       1 RES
     848 _CH2        17.8411    23.1084    36.0654 CH2_sp3       1 RES
     849 _CH3        14.0388    22.5471    35.0937 CH3_sp3       1 RES
     850 _CH3        18.5961    23.3810    37.3796 CH3_sp3       1 RES
     851 _CH2        37.6729     8.2972    20.4345 CH2_sp3       1 RES
     852 _CH2        37.8296     7.3119    21.6077 CH2_sp3       1 RES
     853 _CH2        37.2096     5.9261    21.3489 CH2_sp3       1 RES
     854 _CH3        38.2930     9.6829    20.6933 CH3_sp3       1 RES
     855 _CH3        37.3663     4.9409    22.5221 CH3_sp3       1 RES
     856 _CH2        31.7655    32.9251    21.1980 CH2_sp3       1 RES
     857 _CH2        31.9854    32.3413    19.7900 CH2_sp3       1 RES
     858 _CH2        32.4499    30.8730    19.7863 CH2_sp3       1 RES
     859 _CH3        31.3009    34.3934    21.2017 CH3_sp3       1 RES
     860 _CH3        32.6698    30.2892    18.3783 CH3_sp3       1 RES
     861 _CH2        27.1364    38.3549    32.2368 CH2_sp3       1 RES
     862 _CH2        26.7380    38.1515    33.7104 CH2_sp3       1 RES
     863 _CH2        25.2214    38.2315    33.9661 CH2_sp3       1 RES
     864 _CH3        28.6529    38.2750    31.9812 CH3_sp3       1 RES
     865 _CH3        24.8230    38.0281    35.4397 CH3_sp3       1 RES
     866 _CH2        19.6874    35.5687    24.3399 CH2_sp3       1 RES
     867 _CH2        19.2809    34.4479    23.3650 CH2_sp3       1 RES
     868 _CH2        19.3519    33.0341    23.9713 CH2_sp3       1 RES
     869 _CH3        19.6164    36.9825    23.7336 CH3_sp3       1 RES
     870 _CH3        18.9455    31.9134    22.9965 CH3_sp3       1 RES
     871 _CH2        32.3980     7.2005    26.4228 CH2_sp3       1 RES
     872 _CH2        32.4045     7.4285    24.8997 CH2_sp3       1 RES
     873 _CH2        33.6382     6.8470    24.1846 CH2_sp3       1 RES
     874 _CH3        31.1643     7.7819    27.1379 CH3_sp3       1 RES
     875 _CH3        33.6447     7.0750    22.6616 CH3_sp3       1 RES
     876 _CH2        28.8983    37.4682    24.5753 CH2_sp3       1 RES
     877 _CH2        28.5864    36.1510    25.3097 CH2_sp3       1 RES
     878 _CH2        29.4403    35.9192    26.5701 CH2_sp3       1 RES
     879 _CH3        28.0444    37.7000    23.3149 CH3_sp3       1 RES
     880 _CH3        29.1285    34.6020    27.3045 CH3_sp3       1 RES
     881 _CH2        20.9951    24.8073    15.7452 CH2_sp3       1 RES
     882 _CH2        21.3063    26.3086    15.8891 CH2_sp3       1 RES
     883 _CH2        21.0130    26.8776    17.2898 CH2_sp3       1 RES
     884 _CH3        21.2885    24.2383    14.3445 CH3_sp3       1 RES
     885 _CH3        21.3242    28.3790    17.4338 CH3_sp3       1 RES
     886 _CH2        24.1314    15.8627    31.7425 CH2_sp3       1 RES
     887 _CH2        23.1550    15.4362    30.6306 CH2_sp3       1 RES
     888 _CH2        23.8271    14.7066    29.4527 CH2_sp3       1 RES
     889 _CH3        23.4592    16.5923    32.9204 CH3_sp3       1 RES
     890 _CH3        22.8507    14.2801    28.3408 CH3_sp3       1 RES
     891 _CH2        27.4242    34.8356     6.9032 CH2_sp3       1 RES
     892 _CH2        28.0780    35.0611     8.2791 CH2_sp3       1 RES
     893 _CH2        29.5934    34.7882     8.3049 CH2_sp3       1 RES
     894 _CH3        25.9088    35.1085     6.8775 CH3_sp3       1 RES
     895 _CH3        30.2472    35.0138     9.6808 CH3_sp3       1 RES
     896 _CH2        19.7391    30.1135    12.8150 CH2_sp3       1 RES
     897 _CH2        20.7202    30.5728    11.7204 CH2_sp3       1 RES
     898 _CH2        22.0276    31.1777    12.2648 CH2_sp3       1 RES
     899 _CH3        18.4317    29.5086    12.2706 CH3_sp3       1 RES
     900 _CH3        23.0087    31.6371    11.1703 CH3_sp3       1 RES
     901 _CH2        13.4004    17.3936    30.7251 CH2_sp3       1 RES
     902 _CH2        11.9171    16.9804    30.6956 CH2_sp3       1 RES
     903 _CH2        11.4508    16.4168    29.3404 CH2_sp3       1 RES
     904 _CH3        13.8667    17.9572    32.0803 CH3_sp3       1 RES
     905 _CH3         9.9675    16.0036    29.3109 CH3_sp3       1 RES
     906 _CH2        17.0890    19.3640    19.4229 CH2_sp3       1 RES
     907 _CH2        17.7551    19.4259    18.0358 CH2_sp3       1 RES
     908 _CH2        18.6247    20.6773    17.8140 CH2_sp3       1 RES
     909 _CH3        16.2193    18.1125    19.6448 CH3_sp3       1 RES
     910 _CH3        19.2908    20.7393    16.4269 CH3_sp3       1 RES
     911 _CH2        15.6364    12.8996    31.7661 CH2_sp3       1 RES
     912 _CH2        15.3015    13.5385    30.4055 CH2_sp3       1 RES
     913 _CH2        14.3500    14.7459    30.4978 CH2_sp3       1 RES
     914 _CH3        16.5879    11.6922    31.6738 CH3_sp3       1 RES
     915 _CH3        14.0150    15.3848    29.1372 CH3_sp3       1 RES
     916 _CH2        15.5213     8.0982    16.3945 CH2_sp3       1 RES
     917 _CH2        15.6651     8.6690    14.9714 CH2_sp3       1 RES
     918 _CH2        16.3063    10.0682    14.9196 CH2_sp3       1 RES
     919 _CH3        14.8801     6.6990    16.4463 CH3_sp3       1 RES
     920 _CH3        16.4502    10.6390    13.4965 CH3_sp3       1 RES
     921 _CH2        16.0677    23.0200    17.6820 CH2_sp3       1 RES
     922 _CH2        15.3369    22.6202    18.9773 CH2_sp3       1 RES
     923 _CH2        16.2684    22.0946    20.0852 CH2_sp3       1 RES
     924 _CH3        15.1362    23.5456    16.5740 CH3_sp3       1 RES
     925 _CH3        15.5377    21.6948    21.3805 CH3_sp3       1 RES
     926 _CH2        22.1181     5.3553    22.7880 CH2_sp3       1 RES
     927 _CH2        22.1343     4.4149    21.5686 CH2_sp3       1 RES
     928 _CH2        21.8931     2.9342    21.9162 CH2_sp3       1 RES
     929 _CH3        22.3593     6.8360    22.4403 CH3_sp3       1 RES
     930 _CH3        21.9093     1.9938    20.6968 CH3_sp3       1 RES
     931 _CH2        11.6851     5.3425     6.9393 CH2_sp3       1 RES
     932 _CH2        11.5746     6.0109     5.5564 CH2_sp3       1 RES
     933 _CH2        11.4215     7.5423     5.6112 CH2_sp3       1 RES
     934 _CH3        11.8382     3.8112     6.8845 CH3_sp3       1 RES
     935 _CH3        11.3109     8.2107     4.2283 CH3_sp3       1 RES
     936 _CH2        13.6180    32.6842    27.2826 CH2_sp3       1 RES
     937 _CH2        14.1040    34.1120    26.9714 CH2_sp3       1 RES
     938 _CH2        15.0568    34.2002    25.7647 CH2_sp3       1 RES
     939 _CH3        12.6652    32.5960    28.4893 CH3_sp3       1 RES
     940 _CH3        15.5428    35.6280    25.4534 CH3_sp3       1 RES
     941 _CH2        31.7811    27.0181    33.3543 CH2_sp3       1 RES
     942 _CH2        32.2017    27.4029    31.9237 CH2_sp3       1 RES
     943 _CH2        31.2263    28.3658    31.2216 CH2_sp3       1 RES
     944 _CH3        32.7565    26.0552    34.0564 CH3_sp3       1 RES
     945 _CH3        31.6470    28.7506    29.7910 CH3_sp3       1 RES
     946 _CH2        37.1034    23.8792    12.6421 CH2_sp3       1 RES
     947 _CH2        37.7907    23.5282    13.9747 CH2_sp3       1 RES
     948 _CH2        37.2615    24.3252    15.1815 CH2_sp3       1 RES
     949 _CH3        37.6327    23.0822    11.4353 CH3_sp3       1 RES
     950 _CH3        37.9488    23.9742    16.5141 CH3_sp3       1 RES
     951 _CH2        24.1567     7.9753    17.8431 CH2_sp3       1 RES
     952 _CH2        23.9685     7.2782    19.2034 CH2_sp3       1 RES
     953 _CH2        24.3345     5.7823    19.1965 CH2_sp3       1 RES
     954 _CH3        23.7907     9.4711    17.8499 CH3_sp3       1 RES
     955 _CH3        24.1463     5.0852    20.5568 CH3_sp3       1 RES
     956 _CH2         5.2517     5.8900    32.4638 CH2_sp3       1 RES
     957 _CH2         5.9718     5.4063    33.7362 CH2_sp3       1 RES
     958 _CH2         5.2468     4.2627    34.4699 CH2_sp3       1 RES
     959 _CH3         5.9766     7.0336    31.7301 CH3_sp3       1 RES
     960 _CH3         5.9669     3.7791    35.7424 CH3_sp3       1 RES
     961 _CH2        24.7761    31.1425    27.1048 CH2_sp3       1 RES
     962 _CH2        24.4691    30.6192    28.5202 CH2_sp3       1 RES
     963 _CH2        23.3974    29.5140    28.5606 CH2_sp3       1 RES
     964 _CH3        25.8477    32.2478    27.0644 CH3_sp3       1 RES
     965 _CH3        23.0904    28.9907    29.9760 CH3_sp3       1 RES
     966 _CH2         7.3081     6.0387    22.9211 CH2_sp3       1 RES
     967 _CH2         7.3980     6.5934    21.4873 CH2_sp3       1 RES
     968 _CH2         6.4906     7.8104    21.2285 CH2_sp3       1 RES
     969 _CH3         8.2155     4.8216    23.1799 CH3_sp3       1 RES
     970 _CH3         6.5804     8.3651    19.7947 CH3_sp3       1 RES
     971 _CH2         7.3538    19.7266    16.7991 CH2_sp3       1 RES
     972 _CH2         6.7526    21.0739    17.2405 CH2_sp3       1 RES
     973 _CH2         5.2284    21.0388    17.4572 CH2_sp3       1 RES
     974 _CH3         8.8780    19.7617    16.5824 CH3_sp3       1 RES
     975 _CH3         4.6272    22.3861    17.8986 CH3_sp3       1 RES
     976 _CH2        31.3800    28.0324     2.0032 CH2_sp3       1 RES
     977 _CH2        29.9193    27.9132     2.4761 CH2_sp3       1 RES
     978 _CH2        29.0840    29.1884     2.2572 CH2_sp3       1 RES
     979 _CH3        32.2153    26.7573     2.2220 CH3_sp3       1 RES
     980 _CH3        27.6233    29.0692     2.7301 CH3_sp3       1 RES
     981 _CH2        11.4618    19.9309    31.8899 CH2_sp3       1 RES
     982 _CH2        11.6729    20.1777    30.3845 CH2_sp3       1 RES
     983 _CH2        12.6117    21.3570    30.0688 CH2_sp3       1 RES
     984 _CH3        10.5231    18.7516    32.2056 CH3_sp3       1 RES
     985 _CH3        12.8228    21.6039    28.5634 CH3_sp3       1 RES
     986 _CH2        14.2973     9.8721    27.2901 CH2_sp3       1 RES
     987 _CH2        14.4488     9.3990    28.7478 CH2_sp3       1 RES
     988 _CH2        13.3481     9.9170    29.6921 CH2_sp3       1 RES
     989 _CH3        15.3980     9.3540    26.3458 CH3_sp3       1 RES
     990 _CH3        13.4996     9.4439    31.1498 CH3_sp3       1 RES
     991 _CH2        27.0492     4.1348    18.6362 CH2_sp3       1 RES
     992 _CH2        26.9239     3.1604    19.8222 CH2_sp3       1 RES
     993 _CH2        25.4826     2.9774    20.3329 CH2_sp3       1 RES
     994 _CH3        28.4905     4.3178    18.1255 CH3_sp3       1 RES
     995 _CH3        25.3573     2.0030    21.5188 CH3_sp3       1 RES
     996 _CH2         3.1982    22.4023     3.3813 CH2_sp3       1 RES
     997 _CH2         4.7099    22.6648     3.2493 CH2_sp3       1 RES
     998 _CH2         5.4674    22.6518     4.5901 CH2_sp3       1 RES
     999 _CH3         2.4407    22.4153     2.0406 CH3_sp3       1 RES
    1000 _CH3         6.9791    22.9143     4.4580 CH3_sp3       1 RES
    1001 _CH2        31.4817    20.4683    30.7634 CH2_sp3       1 RES
    1002 _CH2        30.4819    19.6147    29.9615 CH2_sp3       1 RES
    1003 _CH2        29.2906    19.1007    30.7911 CH2_sp3       1 RES
    1004 _CH3        32.6730    20.9824    29.9338 CH3_sp3       1 RES
    1005 _CH3        28.2908    18.2470    29.9891 CH3_sp3       1 RES
    1006 _CH2        17.2894     8.6251    36.8897 CH2_sp3       1 RES
    1007 _CH2        16.0322     7.8367    36.4778 CH2_sp3       1 RES
    1008 _CH2        15.5379     8.1460    35.0525 CH2_sp3       1 RES
    1009 _CH3        17.7837     8.3158    38.3150 CH3_sp3       1 RES
    1010 _CH3        14.2808     7.3576    34.6406 CH3_sp3       1 RES
    1011 _CH2        29.9835    30.9262    12.8223 CH2_sp3       1 RES
    1012 _CH2        30.4135    30.0366    11.6411 CH2_sp3       1 RES
    1013 _CH2        29.8721    30.5022    10.2767 CH2_sp3       1 RES
    1014 _CH3        30.5249    30.4607    14.1867 CH3_sp3       1 RES
    1015 _CH3        30.3021    29.6126     9.0955 CH3_sp3       1 RES
    1016 _CH2        19.1127    11.8165    34.4941 CH2_sp3       1 RES
    1017 _CH2        18.6906    13.0939    35.2436 CH2_sp3       1 RES
    1018 _CH2        17.6886    12.8473    36.3867 CH2_sp3       1 RES
    1019 _CH3        20.1147    12.0631    33.3510 CH3_sp3       1 RES
    1020 _CH3        17.2665    14.1247    37.1362 CH3_sp3       1 RES
    1021 _CH2         8.1130    14.2145    18.6773 CH2_sp3       1 RES
    1022 _CH2         8.9744    15.4870    18.5751 CH2_sp3       1 RES
    1023 _CH2         8.6237    16.3860    17.3750 CH2_sp3       1 RES
    1024 _CH3         8.4637    13.3154    19.8774 CH3_sp3       1 RES
    1025 _CH3         9.4851    17.6585    17.2728 CH3_sp3       1 RES
    1026 _CH2        16.3365    28.9083    23.6794 CH2_sp3       1 RES
    1027 _CH2        15.5828    27.8492    22.8537 CH2_sp3       1 RES
    1028 _CH2        16.4618    26.6712    22.3941 CH2_sp3       1 RES
    1029 _CH3        15.4575    30.0864    24.1390 CH3_sp3       1 RES
    1030 _CH3        15.7081    25.6121    21.5684 CH3_sp3       1 RES
    1031 _CH2        30.7687    24.1648     6.2696 CH2_sp3       1 RES
    1032 _CH2        31.0054    23.8853     7.7654 CH2_sp3       1 RES
    1033 _CH2        32.0954    24.7670     8.4026 CH2_sp3       1 RES
    1034 _CH3        29.6787    23.2831     5.6324 CH3_sp3       1 RES
    1035 _CH3        32.3321    24.4874     9.8984 CH3_sp3       1 RES
    1036 _CH2         8.1768    22.5616    28.2733 CH2_sp3       1 RES
    1037 _CH2         9.2202    22.3102    27.1689 CH2_sp3       1 RES
    1038 _CH2         9.8969    20.9292    27.2491 CH2_sp3       1 RES
    1039 _CH3         7.5001    23.9426    28.1930 CH3_sp3       1 RES
    1040 _CH3        10.9403    20.6778    26.1447 CH3_sp3       1 RES
    1041 _CH2        15.2445     8.2857    19.5682 CH2_sp3       1 RES
    1042 _CH2        16.2660     8.4742    18.4312 CH2_sp3       1 RES
    1043 _CH2        17.2605     7.3077    18.2828 CH2_sp3       1 RES
    1044 _CH3        14.2501     9.4521    19.7165 CH3_sp3       1 RES
    1045 _CH3        18.2819     7.4962    17.1458 CH3_sp3       1 RES
    1046 _CH2        25.4197    34.9276    33.0271 CH2_sp3       1 RES
    1047 _CH2        26.0814    33.8577    32.1389 CH2_sp3       1 RES
    1048 _CH2        25.6239    32.4194    32.4446 CH2_sp3       1 RES
    1049 _CH3        25.8772    36.3660    32.7214 CH3_sp3       1 RES
    1050 _CH3        26.2856    31.3495    31.5563 CH3_sp3       1 RES
    1051 _CH2         6.1351    20.0595    29.5155 CH2_sp3       1 RES
    1052 _CH2         6.5989    20.0061    28.0480 CH2_sp3       1 RES
    1053 _CH2         6.9869    18.5963    27.5647 CH2_sp3       1 RES
    1054 _CH3         5.7471    21.4693    29.9989 CH3_sp3       1 RES
    1055 _CH3         7.4507    18.5428    26.0971 CH3_sp3       1 RES
    1056 _CH2        16.2006    16.7326    26.8161 CH2_sp3       1 RES
    1057 _CH2        14.8606    17.3746    27.2211 CH2_sp3       1 RES
    1058 _CH2        14.9673    18.3525    28.4060 CH2_sp3       1 RES
    1059 _CH3        16.0939    15.7547    25.6312 CH3_sp3       1 RES
    1060 _CH3        13.6274    18.9945    28.8109 CH3_sp3       1 RES
    1061 _CH2        37.3926    26.6799    10.1135 CH2_sp3       1 RES
    1062 _CH2        36.7128    25.4135    10.6662 CH2_sp3       1 RES
    1063 _CH2        35.5975    25.6971    11.6895 CH2_sp3       1 RES
    1064 _CH3        38.5079    26.3963     9.0902 CH3_sp3       1 RES
    1065 _CH3        34.9177    24.4306    12.2423 CH3_sp3       1 RES
    1066 _CH2        27.0929    25.9418     6.1083 CH2_sp3       1 RES
    1067 _CH2        25.6679    25.9351     6.6922 CH2_sp3       1 RES
    1068 _CH2        25.4114    24.8040     7.7053 CH2_sp3       1 RES
    1069 _CH3        27.3494    27.0729     5.0952 CH3_sp3       1 RES
    1070 _CH3        23.9864    24.7973     8.2892 CH3_sp3       1 RES
    1071 _CH2        18.7564     6.0386    19.9688 CH2_sp3       1 RES
    1072 _CH2        18.7450     5.4109    18.5626 CH2_sp3       1 RES
    1073 _CH2        18.6137     3.8765    18.5625 CH2_sp3       1 RES
    1074 _CH3        18.8877     7.5730    19.9688 CH3_sp3       1 RES
    1075 _CH3        18.6023     3.2488    17.1563 CH3_sp3       1 RES
    1076 _CH2        20.2156     9.7519    16.3624 CH2_sp3       1 RES
    1077 _CH2        20.3343     8.4704    17.2080 CH2_sp3       1 RES
    1078 _CH2        20.6453     7.2050    16.3873 CH2_sp3       1 RES
    1079 _CH3        19.9047    11.0174    17.1832 CH3_sp3       1 RES
    1080 _CH3        20.7640     5.9234    17.2329 CH3_sp3       1 RES
    1081 _CH2        17.1767    33.9860    14.1601 CH2_sp3       1 RES
    1082 _CH2        17.5775    33.5388    12.7420 CH2_sp3       1 RES
    1083 _CH2        18.6688    32.4527    12.7126 CH2_sp3       1 RES
    1084 _CH3        16.0854    35.0721    14.1894 CH3_sp3       1 RES
    1085 _CH3        19.0696    32.0055    11.2945 CH3_sp3       1 RES
    1086 _CH2        30.5764    37.8077    33.1469 CH2_sp3       1 RES
    1087 _CH2        31.1981    38.5012    34.3734 CH2_sp3       1 RES
    1088 _CH2        30.8826    37.8078    35.7118 CH2_sp3       1 RES
    1089 _CH3        30.8919    38.5010    31.8085 CH3_sp3       1 RES
    1090 _CH3        31.5043    38.5013    36.9383 CH3_sp3       1 RES
    1091 _CH2         7.5529    20.3030     8.9316 CH2_sp3       1 RES
    1092 _CH2         9.0046    20.3326     8.4183 CH2_sp3       1 RES
    1093 _CH2         9.2910    21.4649     7.4145 CH2_sp3       1 RES
    1094 _CH3         7.2664    19.1707     9.9353 CH3_sp3       1 RES
    1095 _CH3        10.7427    21.4945     6.9012 CH3_sp3       1 RES
    1096 _CH2        30.3186     9.6364    33.1409 CH2_sp3       1 RES
    1097 _CH2        29.8918    10.8142    34.0366 CH2_sp3       1 RES
    1098 _CH2        30.5920    10.8440    35.4079 CH2_sp3       1 RES
    1099 _CH3        29.6185     9.6066    31.7696 CH3_sp3       1 RES
    1100 _CH3        30.1652    12.0218    36.3036 CH3_sp3       1 RES
    1101 _CH2        24.8721    29.6267    25.3483 CH2_sp3       1 RES
    1102 _CH2        24.7936    30.1150    23.8899 CH2_sp3       1 RES
    1103 _CH2        24.3166    31.5718    23.7420 CH2_sp3       1 RES
    1104 _CH3        25.3491    28.1699    25.4962 CH3_sp3       1 RES
    1105 _CH3        24.2381    32.0601    22.2835 CH3_sp3       1 RES
    1106 _CH2        25.5233    30.5262    12.9341 CH2_sp3       1 RES
    1107 _CH2        24.5399    29.4819    12.3737 CH2_sp3       1 RES
    1108 _CH2        24.3238    28.2672    13.2953 CH2_sp3       1 RES
    1109 _CH3        25.7394    31.7409    12.0124 CH3_sp3       1 RES
    1110 _CH3        23.3404    27.2229    12.7350 CH3_sp3       1 RES
    1111 _CH2        20.2547    31.7935    30.3381 CH2_sp3       1 RES
    1112 _CH2        21.5843    32.5641    30.4367 CH2_sp3       1 RES
    1113 _CH2        21.4703    33.9203    31.1573 CH2_sp3       1 RES
    1114 _CH3        20.3687    30.4373    29.6174 CH3_sp3       1 RES
    1115 _CH3        22.8000    34.6910    31.2559 CH3_sp3       1 RES
    1116 _CH2         8.9611    28.6704     9.6909 CH2_sp3       1 RES
    1117 _CH2         8.9886    27.7068     8.4899 CH2_sp3       1 RES
    1118 _CH2         7.6079    27.1406     8.1094 CH2_sp3       1 RES
    1119 _CH3        10.3418    29.2366    10.0713 CH3_sp3       1 RES
    1120 _CH3         7.6354    26.1770     6.9084 CH3_sp3       1 RES
    1121 _CH2        21.3492    12.7051    12.4730 CH2_sp3       1 RES
    1122 _CH2        20.7845    13.1729    13.8273 CH2_sp3       1 RES
    1123 _CH2        20.2221    14.6064    13.8099 CH2_sp3       1 RES
    1124 _CH3        21.9116    11.2716    12.4904 CH3_sp3       1 RES
    1125 _CH3        19.6574    15.0741    15.1642 CH3_sp3       1 RES
    1126 _CH2        26.5956    13.5994    26.4708 CH2_sp3       1 RES
    1127 _CH2        26.1993    12.8632    27.7642 CH2_sp3       1 RES
    1128 _CH2        26.6481    13.5762    29.0533 CH2_sp3       1 RES
    1129 _CH3        26.1468    12.8863    25.1817 CH3_sp3       1 RES
    1130 _CH3        26.2519    12.8401    30.3466 CH3_sp3       1 RES
    1131 _CH2        16.8658    34.9967     5.4864 CH2_sp3       1 RES
    1132 _CH2        16.6822    35.4515     6.9462 CH2_sp3       1 RES
    1133 _CH2        15.2108    35.5849     7.3804 CH2_sp3       1 RES
    1134 _CH3        18.3373    34.8632     5.0522 CH3_sp3       1 RES
    1135 _CH3        15.0272    36.0397     8.8402 CH3_sp3       1 RES
    1136 _CH2        27.7225     8.8107    27.6897 CH2_sp3       1 RES
    1137 _CH2        28.2118    10.2526    27.9202 CH2_sp3       1 RES
    1138 _CH2        29.7390    10.4201    27.8149 CH2_sp3       1 RES
    1139 _CH3        26.1952     8.6431    27.7951 CH3_sp3       1 RES
    1140 _CH3        30.2283    11.8620    28.0453 CH3_sp3       1 RES
    1141 _CH2        13.2961    18.0436     3.6174 CH2_sp3       1 RES
    1142 _CH2        13.9894    17.5180     4.8881 CH2_sp3       1 RES
    1143 _CH2        15.3301    16.8086     4.6223 CH2_sp3       1 RES
    1144 _CH3        11.9553    18.7530     3.8832 CH3_sp3       1 RES
    1145 _CH3        16.0234    16.2829     5.8930 CH3_sp3       1 RES
    1146 _CH2         3.2610    21.3558    31.1124 CH2_sp3       1 RES
    1147 _CH2         3.3710    21.9251    32.5391 CH2_sp3       1 RES
    1148 _CH2         4.0287    23.3158    32.6096 CH2_sp3       1 RES
    1149 _CH3         2.6033    19.9650    31.0420 CH3_sp3       1 RES
    1150 _CH3         4.1386    23.8851    34.0363 CH3_sp3       1 RES
    1151 _CH2        32.6849    32.4820     2.9496 CH2_sp3       1 RES
    1152 _CH2        33.2272    31.1347     2.4378 CH2_sp3       1 RES
    1153 _CH2        32.8993    29.9395     3.3519 CH2_sp3       1 RES
    1154 _CH3        33.0129    33.6772     2.0355 CH3_sp3       1 RES
    1155 _CH3        33.4416    28.5921     2.8400 CH3_sp3       1 RES
    1156 _CH2        21.4887    17.8685    25.6353 CH2_sp3       1 RES
    1157 _CH2        20.9800    18.5031    24.3276 CH2_sp3       1 RES
    1158 _CH2        19.4484    18.4709    24.1701 CH2_sp3       1 RES
    1159 _CH3        23.0203    17.9007    25.7928 CH3_sp3       1 RES
    1160 _CH3        18.9397    19.1056    22.8625 CH3_sp3       1 RES
    1161 _CH2        24.3767    29.1996     4.5622 CH2_sp3       1 RES
    1162 _CH2        24.1476    29.3782     6.0745 CH2_sp3       1 RES
    1163 _CH2        23.7466    28.0828     6.8045 CH2_sp3       1 RES
    1164 _CH3        24.7777    30.4949     3.8321 CH3_sp3       1 RES
    1165 _CH3        23.5176    28.2614     8.3169 CH3_sp3       1 RES
    1166 _CH2        30.0413    34.7421    33.3576 CH2_sp3       1 RES
    1167 _CH2        29.2786    35.0702    34.6546 CH2_sp3       1 RES
    1168 _CH2        28.8302    36.5395    34.7629 CH2_sp3       1 RES
    1169 _CH3        30.4897    33.2728    33.2492 CH3_sp3       1 RES
    1170 _CH3        28.0675    36.8676    36.0599 CH3_sp3       1 RES
    1171 _CH2         2.7441    24.8963     8.2666 CH2_sp3       1 RES
    1172 _CH2         2.3575    24.3797     6.8683 CH2_sp3       1 RES
    1173 _CH2         2.8995    25.2391     5.7111 CH2_sp3       1 RES
    1174 _CH3         2.2021    24.0369     9.4238 CH3_sp3       1 RES
    1175 _CH3         2.5129    24.7225     4.3128 CH3_sp3       1 RES
    1176 _CH2        10.7187     9.4261    13.5571 CH2_sp3       1 RES
    1177 _CH2         9.1862     9.4422    13.7086 CH2_sp3       1 RES
    1178 _CH2         8.6735     8.7179    14.9672 CH2_sp3       1 RES
    1179 _CH3        11.2313    10.1504    12.2985 CH3_sp3       1 RES
    1180 _CH3         7.1411     8.7340    15.1187 CH3_sp3       1 RES
    1181 _CH2        34.8790    32.5132    36.3112 CH2_sp3       1 RES
    1182 _CH2        35.1911    32.9529    34.8687 CH2_sp3       1 RES
    1183 _CH2        36.6692    33.3134    34.6297 CH2_sp3       1 RES
    1184 _CH3        33.4010    32.1527    36.5502 CH3_sp3       1 RES
    1185 _CH3        36.9813    33.7531    33.1872 CH3_sp3       1 RES
    1186 _CH2        18.7509    24.0309    27.0405 CH2_sp3       1 RES
    1187 _CH2        18.7223    23.4208    25.6268 CH2_sp3       1 RES
    1188 _CH2        19.0710    21.9214    25.5844 CH2_sp3       1 RES
    1189 _CH3        18.4023    25.5303    27.0828 CH3_sp3       1 RES
    1190 _CH3        19.0424    21.3113    24.1707 CH3_sp3       1 RES
    1191 _CH2        10.0737    24.1035    25.5149 CH2_sp3       1 RES
    1192 _CH2        10.2458    24.5411    24.0484 CH2_sp3       1 RES
    1193 _CH2         9.3651    25.7381    23.6445 CH2_sp3       1 RES
    1194 _CH3        10.9545    22.9065    25.9188 CH3_sp3       1 RES
    1195 _CH3         9.5372    26.1757    22.1780 CH3_sp3       1 RES
    1196 _CH2        30.1248    20.3085    37.3266 CH2_sp3       1 RES
    1197 _CH2        30.5763    19.9848    35.8903 CH2_sp3       1 RES
    1198 _CH2        31.3407    18.6543    35.7589 CH2_sp3       1 RES
    1199 _CH3        29.3604    21.6390    37.4580 CH3_sp3       1 RES
    1200 _CH3        31.7922    18.3305    34.3226 CH3_sp3       1 RES
    1201 _CH2         1.9887    28.4704    16.7491 CH2_sp3       1 RES
    1202 _CH2         3.2783    27.6290    16.7715 CH2_sp3       1 RES
    1203 _CH2         3.0353    26.1089    16.7306 CH2_sp3       1 RES
    1204 _CH3         2.2317    29.9905    16.7900 CH3_sp3       1 RES
    1205 _CH3         4.3249    25.2675    16.7530 CH3_sp3       1 RES
    1206 _CH2        25.7135    26.5935    18.1199 CH2_sp3       1 RES
    1207 _CH2        27.2390    26.8029    18.1384 CH2_sp3       1 RES
    1208 _CH2        27.6705    28.2317    18.5177 CH2_sp3       1 RES
    1209 _CH3        25.2819    25.1646    17.7406 CH3_sp3       1 RES
    1210 _CH3        29.1961    28.4412    18.5362 CH3_sp3       1 RES
    1211 _CH2        23.6603    13.7115     5.0887 CH2_sp3       1 RES
    1212 _CH2        22.2538    13.1778     5.4179 CH2_sp3       1 RES
    1213 _CH2        21.5590    13.9165     6.5768 CH2_sp3       1 RES
    1214 _CH3        24.3552    12.9728     3.9297 CH3_sp3       1 RES
    1215 _CH3        20.1524    13.3829     6.9060 CH3_sp3       1 RES
    1216 _CH2        10.4988    18.5498    14.4610 CH2_sp3       1 RES
    1217 _CH2        10.7037    19.9793    13.9260 CH2_sp3       1 RES
    1218 _CH2        11.1905    20.9820    14.9886 CH2_sp3       1 RES
    1219 _CH3        10.0120    17.5471    13.3983 CH3_sp3       1 RES
    1220 _CH3        11.3953    22.4115    14.4537 CH3_sp3       1 RES
    1221 _CH2         4.6663    15.4571     6.2532 CH2_sp3       1 RES
    1222 _CH2         4.9817    15.9652     4.8341 CH2_sp3       1 RES
    1223 _CH2         3.9087    15.6093     3.7884 CH2_sp3       1 RES
    1224 _CH3         5.7394    15.8130     7.2989 CH3_sp3       1 RES
    1225 _CH3         4.2241    16.1174     2.3693 CH3_sp3       1 RES
    1226 _CH2        36.3836     5.6721    24.6710 CH2_sp3       1 RES
    1227 _CH2        37.1766     6.7375    23.8915 CH2_sp3       1 RES
    1228 _CH2        36.3587     7.9938    23.5390 CH2_sp3       1 RES
    1229 _CH3        37.2016     4.4158    25.0235 CH3_sp3       1 RES
    1230 _CH3        37.1517     9.0592    22.7595 CH3_sp3       1 RES
    1231 _CH2         3.5446    14.7462    16.0277 CH2_sp3       1 RES
    1232 _CH2         3.3522    14.3965    17.5151 CH2_sp3       1 RES
    1233 _CH2         2.3604    13.2452    17.7646 CH2_sp3       1 RES
    1234 _CH3         4.5365    15.8975    15.7781 CH3_sp3       1 RES
    1235 _CH3         2.1680    12.8955    19.2520 CH3_sp3       1 RES
    1236 _CH2        32.6651    31.4396     5.5913 CH2_sp3       1 RES
    1237 _CH2        31.6821    31.4590     6.7766 CH2_sp3       1 RES
    1238 _CH2        30.2761    30.9329     6.4330 CH2_sp3       1 RES
    1239 _CH3        34.0711    31.9657     5.9349 CH3_sp3       1 RES
    1240 _CH3        29.2931    30.9523     7.6183 CH3_sp3       1 RES
    1241 _CH2         7.6449    15.5305    25.4326 CH2_sp3       1 RES
    1242 _CH2         7.9570    15.0995    26.8777 CH2_sp3       1 RES
    1243 _CH2         6.7791    15.2795    27.8533 CH2_sp3       1 RES
    1244 _CH3         8.8228    15.3506    24.4570 CH3_sp3       1 RES
    1245 _CH3         7.0913    14.8484    29.2985 CH3_sp3       1 RES
    1246 _CH2        16.9151    23.5548    14.4611 CH2_sp3       1 RES
    1247 _CH2        16.9612    22.4365    13.4033 CH2_sp3       1 RES
    1248 _CH2        15.9409    22.6106    12.2630 CH2_sp3       1 RES
    1249 _CH3        17.9354    23.3807    15.6015 CH3_sp3       1 RES
    1250 _CH3        15.9870    21.4923    11.2052 CH3_sp3       1 RES
    1251 _CH2        13.0005    23.9957     7.1592 CH2_sp3       1 RES
    1252 _CH2        13.2850    24.3883     8.6209 CH2_sp3       1 RES
    1253 _CH2        14.1064    23.3451     9.4011 CH2_sp3       1 RES
    1254 _CH3        12.1791    25.0388     6.3790 CH3_sp3       1 RES
    1255 _CH3        14.3909    23.7377    10.8628 CH3_sp3       1 RES
    1256 _CH2         6.3814    25.4958    25.4369 CH2_sp3       1 RES
    1257 _CH2         5.2071    25.7344    24.4696 CH2_sp3       1 RES
    1258 _CH2         4.2306    26.8331    24.9288 CH2_sp3       1 RES
    1259 _CH3         7.3579    24.3971    24.9777 CH3_sp3       1 RES
    1260 _CH3         3.0563    27.0716    23.9615 CH3_sp3       1 RES
    1261 _CH2        32.7823    10.8373    12.4806 CH2_sp3       1 RES
    1262 _CH2        33.3386    10.5908    13.8953 CH2_sp3       1 RES
    1263 _CH2        32.4038     9.7682    14.8014 CH2_sp3       1 RES
    1264 _CH3        33.7171    11.6599    11.5745 CH3_sp3       1 RES
    1265 _CH3        32.9602     9.5216    16.2161 CH3_sp3       1 RES
    1266 _CH2         4.6181    34.3136     9.5412 CH2_sp3       1 RES
    1267 _CH2         5.3837    33.5358     8.4547 CH2_sp3       1 RES
    1268 _CH2         5.2553    32.0057     8.5718 CH2_sp3       1 RES
    1269 _CH3         4.7464    35.8437     9.4242 CH3_sp3       1 RES
    1270 _CH3         6.0210    31.2279     7.4853 CH3_sp3       1 RES
    1271 _CH2        37.2869     5.3566     6.1059 CH2_sp3       1 RES
    1272 _CH2        36.3305     6.5078     6.4688 CH2_sp3       1 RES
    1273 _CH2        36.9341     7.9103     6.2684 CH2_sp3       1 RES
    1274 _CH3        36.6833     3.9540     6.3063 CH3_sp3       1 RES
    1275 _CH3        35.9778     9.0615     6.6314 CH3_sp3       1 RES
    1276 _CH2        12.4400    22.1713    22.9912 CH2_sp3       1 RES
    1277 _CH2        13.8456    22.6833    23.3568 CH2_sp3       1 RES
    1278 _CH2        13.8701    23.6362    24.5663 CH2_sp3       1 RES
    1279 _CH3        12.4155    21.2184    21.7816 CH3_sp3       1 RES
    1280 _CH3        15.2757    24.1483    24.9319 CH3_sp3       1 RES
    1281 _CH2         5.6515    19.5795    33.1589 CH2_sp3       1 RES
    1282 _CH2         6.1831    18.8851    31.8913 CH2_sp3       1 RES
    1283 _CH2         5.8248    17.3902    31.7990 CH2_sp3       1 RES
    1284 _CH3         6.0098    21.0744    33.2512 CH3_sp3       1 RES
    1285 _CH3         6.3564    16.6957    30.5315 CH3_sp3       1 RES
    1286 _CH2         8.8822    16.0040     5.3906 CH2_sp3       1 RES
    1287 _CH2         8.1958    15.5652     4.0837 CH2_sp3       1 RES
    1288 _CH2         7.0551    14.5504     4.2854 CH2_sp3       1 RES
    1289 _CH3        10.0228    17.0188     5.1890 CH3_sp3       1 RES
    1290 _CH3         6.3688    14.1117     2.9785 CH3_sp3       1 RES
    1291 _CH2        32.2400    36.3554    27.6736 CH2_sp3       1 RES
    1292 _CH2        33.0693    35.4900    26.7067 CH2_sp3       1 RES
    1293 _CH2        33.7319    34.2686    27.3705 CH2_sp3       1 RES
    1294 _CH3        31.5774    37.5768    27.0099 CH3_sp3       1 RES
    1295 _CH3        34.5611    33.4032    26.4035 CH3_sp3       1 RES
    1296 _CH2        30.5636    18.4957    24.7819 CH2_sp3       1 RES
    1297 _CH2        29.8765    19.0281    26.0532 CH2_sp3       1 RES
    1298 _CH2        29.2658    20.4328    25.8937 CH2_sp3       1 RES
    1299 _CH3        31.1743    17.0911    24.9414 CH3_sp3       1 RES
    1300 _CH3        28.5787    20.9651    27.1650 CH3_sp3       1 RES
    1301 _CH2        14.5841    16.0272    23.7241 CH2_sp3       1 RES
    1302 _CH2        15.2432    16.1242    22.3356 CH2_sp3       1 RES
    1303 _CH2        16.7593    16.3912    22.3792 CH2_sp3       1 RES
    1304 _CH3        13.0681    15.7602    23.6805 CH3_sp3       1 RES
    1305 _CH3        17.4184    16.4882    20.9907 CH3_sp3       1 RES
    1306 _CH2        35.9047    12.7431    16.6252 CH2_sp3       1 RES
    1307 _CH2        36.6905    11.5632    16.0235 CH2_sp3       1 RES
    1308 _CH2        37.3738    11.8851    14.6815 CH2_sp3       1 RES
    1309 _CH3        35.2214    12.4212    17.9672 CH3_sp3       1 RES
    1310 _CH3        38.1595    10.7052    14.0798 CH3_sp3       1 RES
    1311 _CH2        29.3030    20.5303    21.6658 CH2_sp3       1 RES
    1312 _CH2        29.6315    19.1364    22.2320 CH2_sp3       1 RES
    1313 _CH2        30.5316    18.2850    21.3174 CH2_sp3       1 RES
    1314 _CH3        28.4028    21.3817    22.5804 CH3_sp3       1 RES
    1315 _CH3        30.8602    16.8911    21.8836 CH3_sp3       1 RES
    1316 _CH2         7.4594    27.9181    20.6487 CH2_sp3       1 RES
    1317 _CH2         6.9638    28.1822    22.0826 CH2_sp3       1 RES
    1318 _CH2         5.4531    28.4641    22.1813 CH2_sp3       1 RES
    1319 _CH3         8.9701    27.6361    20.5500 CH3_sp3       1 RES
    1320 _CH3         4.9575    28.7283    23.6153 CH3_sp3       1 RES
    1321 _CH2        22.9087     9.8606    38.2914 CH2_sp3       1 RES
    1322 _CH2        22.2171    10.2894    36.9839 CH2_sp3       1 RES
    1323 _CH2        21.9464    11.8022    36.8854 CH2_sp3       1 RES
    1324 _CH3        23.1793     8.3478    38.3900 CH3_sp3       1 RES
    1325 _CH3        21.2548    12.2309    35.5779 CH3_sp3       1 RES
    1326 _CH2        25.2188    11.1575    31.5260 CH2_sp3       1 RES
    1327 _CH2        25.3488    11.7206    32.9535 CH2_sp3       1 RES
    1328 _CH2        25.6318    13.2334    33.0067 CH2_sp3       1 RES
    1329 _CH3        24.9358     9.6446    31.4728 CH3_sp3       1 RES
    1330 _CH3        25.7617    13.7965    34.4341 CH3_sp3       1 RES
    1331 _CH2        32.6240    37.7768    18.1574 CH2_sp3       1 RES
    1332 _CH2        32.8802    37.0336    19.4816 CH2_sp3       1 RES
    1333 _CH2        33.1026    37.9634    20.6889 CH2_sp3       1 RES
    1334 _CH3        32.4016    36.8470    16.9501 CH3_sp3       1 RES
    1335 _CH3        33.3588    37.2201    22.0131 CH3_sp3       1 RES
    1336 _CH2        20.8223    15.7108     3.6103 CH2_sp3       1 RES
    1337 _CH2        20.6266    15.9094     5.1248 CH2_sp3       1 RES
    1338 _CH2        19.3649    16.7118     5.4935 CH2_sp3       1 RES
    1339 _CH3        22.0840    14.9085     3.2416 CH3_sp3       1 RES
    1340 _CH3        19.1692    16.9104     7.0080 CH3_sp3       1 RES
    1341 _CH2         3.3936    27.9559     9.2770 CH2_sp3       1 RES
    1342 _CH2         3.7381    28.2778    10.7431 CH2_sp3       1 RES
    1343 _CH2         5.0849    29.0019    10.9256 CH2_sp3       1 RES
    1344 _CH3         2.0468    27.2318     9.0945 CH3_sp3       1 RES
    1345 _CH3         5.4294    29.3238    12.3916 CH3_sp3       1 RES
    1346 _CH2         4.7973    27.1557    30.4321 CH2_sp3       1 RES
    1347 _CH2         4.7279    27.6566    31.8867 CH2_sp3       1 RES
    1348 _CH2         3.2950    27.7947    32.4339 CH2_sp3       1 RES
    1349 _CH3         6.2302    27.0175    29.8849 CH3_sp3       1 RES
    1350 _CH3         3.2257    28.2956    33.8885 CH3_sp3       1 RES
    1351 _CH2        33.8540    30.6682    10.2714 CH2_sp3       1 RES
    1352 _CH2        34.2264    31.6482     9.1433 CH2_sp3       1 RES
    1353 _CH2        35.7373    31.7282     8.8564 CH2_sp3       1 RES
    1354 _CH3        32.3431    30.5882    10.5583 CH3_sp3       1 RES
    1355 _CH3        36.1096    32.7083     7.7284 CH3_sp3       1 RES
    1356 _CH2        26.6011     6.9973    12.5531 CH2_sp3       1 RES
    1357 _CH2        25.4457     5.9904    12.7038 CH2_sp3       1 RES
    1358 _CH2        25.4085     4.9107    11.6063 CH2_sp3       1 RES
    1359 _CH3        26.6383     8.0769    13.6507 CH3_sp3       1 RES
    1360 _CH3        24.2531     3.9039    11.7570 CH3_sp3       1 RES
    1361 _CH2        11.9473     2.8409     4.2567 CH2_sp3       1 RES
    1362 _CH2        12.5060     4.2075     4.6946 CH2_sp3       1 RES
    1363 _CH2        13.0854     5.0464     3.5404 CH2_sp3       1 RES
    1364 _CH3        11.3679     2.0020     5.4109 CH3_sp3       1 RES
    1365 _CH3        13.6442     6.4130     3.9784 CH3_sp3       1 RES
    1366 _CH2         9.6283    13.9152    35.4571 CH2_sp3       1 RES
    1367 _CH2         8.8907    14.2735    34.1536 CH2_sp3       1 RES
    1368 _CH2         9.6086    13.7983    32.8767 CH2_sp3       1 RES
    1369 _CH3         8.9104    14.3904    36.7339 CH3_sp3       1 RES
    1370 _CH3         8.8709    14.1565    31.5732 CH3_sp3       1 RES
    1371 _CH2        36.1581    28.2186    29.3465 CH2_sp3       1 RES
    1372 _CH2        36.5676    26.9124    30.0520 CH2_sp3       1 RES
    1373 _CH2        36.2294    25.6381    29.2562 CH2_sp3       1 RES
    1374 _CH3        36.4964    29.4930    30.1422 CH3_sp3       1 RES
    1375 _CH3        36.6388    24.3319    29.9617 CH3_sp3       1 RES
    1376 _CH2        22.6354    27.9817    23.7454 CH2_sp3       1 RES
    1377 _CH2        22.2603    28.1018    25.2342 CH2_sp3       1 RES
    1378 _CH2        22.5977    26.8516    26.0679 CH2_sp3       1 RES
    1379 _CH3        22.2981    29.2319    22.9117 CH3_sp3       1 RES
    1380 _CH3        22.2226    26.9716    27.5567 CH3_sp3       1 RES
    1381 _CH2        33.0833    16.9602    36.2427 CH2_sp3       1 RES
    1382 _CH2        34.2084    17.9949    36.4307 CH2_sp3       1 RES
    1383 _CH2        34.5827    18.7539    35.1442 CH2_sp3       1 RES
    1384 _CH3        32.7089    16.2011    37.5292 CH3_sp3       1 RES
    1385 _CH3        35.7078    19.7886    35.3322 CH3_sp3       1 RES
    1386 _CH2        27.8423    33.0645    37.2148 CH2_sp3       1 RES
    1387 _CH2        28.0118    34.5945    37.1712 CH2_sp3       1 RES
    1388 _CH2        28.1763    35.2462    38.5568 CH2_sp3       1 RES
    1389 _CH3        27.6778    32.4128    35.8293 CH3_sp3       1 RES
    1390 _CH3        28.3458    36.7762    38.5132 CH3_sp3       1 RES
    1391 _CH2         6.1145    35.3480    35.1067 CH2_sp3       1 RES
    1392 _CH2         7.1125    36.0964    36.0098 CH2_sp3       1 RES
    1393 _CH2         6.4707    37.1967    36.8753 CH2_sp3       1 RES
    1394 _CH3         6.7563    34.2477    34.2412 CH3_sp3       1 RES
    1395 _CH3         7.4686    37.9451    37.7784 CH3_sp3       1 RES
    1396 _CH2         3.0868    33.2542    25.1002 CH2_sp3       1 RES
    1397 _CH2         2.8971    32.6562    26.5066 CH2_sp3       1 RES
    1398 _CH2         2.3682    31.2098    26.5062 CH2_sp3       1 RES
    1399 _CH3         3.6156    34.7005    25.1007 CH3_sp3       1 RES
    1400 _CH3         2.1786    30.6118    27.9126 CH3_sp3       1 RES
    1401 _CH2        11.9591    23.0446    19.4082 CH2_sp3       1 RES
    1402 _CH2        11.6060    23.9880    20.5730 CH2_sp3       1 RES
    1403 _CH2        12.2809    25.3696    20.4867 CH2_sp3       1 RES
    1404 _CH3        11.2842    21.6630    19.4945 CH3_sp3       1 RES
    1405 _CH3        11.9277    26.3131    21.6515 CH3_sp3       1 RES
    1406 _CH2        15.1884    31.3755     3.5454 CH2_sp3       1 RES
    1407 _CH2        13.9631    30.8743     4.3321 CH2_sp3       1 RES
    1408 _CH2        13.8288    29.3407     4.3720 CH2_sp3       1 RES
    1409 _CH3        15.3227    32.9092     3.5054 CH3_sp3       1 RES
    1410 _CH3        12.6035    28.8395     5.1587 CH3_sp3       1 RES
    1411 _CH2         6.0127    11.3156     3.2487 CH2_sp3       1 RES
    1412 _CH2         5.1869    11.1478     4.5377 CH2_sp3       1 RES
    1413 _CH2         5.2170    12.3767     5.4654 CH2_sp3       1 RES
    1414 _CH3         5.9827    10.0867     2.3211 CH3_sp3       1 RES
    1415 _CH3         4.3912    12.2088     6.7543 CH3_sp3       1 RES
    1416 _CH2        30.8645    25.2385     3.0539 CH2_sp3       1 RES
    1417 _CH2        31.4891    25.3604     4.4562 CH2_sp3       1 RES
    1418 _CH2        32.9702    25.7823     4.4478 CH2_sp3       1 RES
    1419 _CH3        29.3834    24.8167     3.0623 CH3_sp3       1 RES
    1420 _CH3        33.5947    25.9042     5.8501 CH3_sp3       1 RES
    1421 _CH2        33.7776    17.1363     2.6222 CH2_sp3       1 RES
    1422 _CH2        35.2398    16.8427     3.0061 CH2_sp3       1 RES
    1423 _CH2        35.9859    18.0512     3.6013 CH2_sp3       1 RES
    1424 _CH3        33.0314    15.9277     2.0270 CH3_sp3       1 RES
    1425 _CH3        37.4481    17.7576     3.9851 CH3_sp3       1 RES
    1426 _CH2         4.0521    23.7247    13.2198 CH2_sp3       1 RES
    1427 _CH2         2.9878    24.7520    12.7911 CH2_sp3       1 RES
    1428 _CH2         3.2804    26.1896    13.2594 CH2_sp3       1 RES
    1429 _CH3         3.7595    22.2871    12.7515 CH3_sp3       1 RES
    1430 _CH3         2.2161    27.2168    12.8307 CH3_sp3       1 RES
    1431 _CH2        13.1747    29.7936    11.6930 CH2_sp3       1 RES
    1432 _CH2        12.1366    28.7122    11.3403 CH2_sp3       1 RES
    1433 _CH2        12.7459    27.3246    11.0662 CH2_sp3       1 RES
    1434 _CH3        12.5654    31.1811    11.9671 CH3_sp3       1 RES
    1435 _CH3        11.7077    26.2432    10.7136 CH3_sp3       1 RES
    1436 _CH2        10.3233    24.0139    11.8129 CH2_sp3       1 RES
    1437 _CH2        11.7618    23.9944    12.3625 CH2_sp3       1 RES
    1438 _CH2        12.1791    25.2962    13.0715 CH2_sp3       1 RES
    1439 _CH3         9.9059    22.7122    11.1039 CH3_sp3       1 RES
    1440 _CH3        13.6176    25.2767    13.6211 CH3_sp3       1 RES
    1441 _CH2        13.4692    36.6222    35.1914 CH2_sp3       1 RES
    1442 _CH2        14.6140    36.1233    34.2903 CH2_sp3       1 RES
    1443 _CH2        15.8166    35.5519    35.0642 CH2_sp3       1 RES
    1444 _CH3        12.2666    37.1936    34.4175 CH3_sp3       1 RES
    1445 _CH3        16.9615    35.0530    34.1631 CH3_sp3       1 RES
    1446 _CH2         2.5883    12.5185     3.6769 CH2_sp3       1 RES
    1447 _CH2         2.8097    12.6992     5.1902 CH2_sp3       1 RES
    1448 _CH2         2.0147    11.7097     6.0622 CH2_sp3       1 RES
    1449 _CH3         3.3833    13.5080     2.8049 CH3_sp3       1 RES
    1450 _CH3         2.2362    11.8904     7.5754 CH3_sp3       1 RES
    1451 _CH2        25.5088     8.2719     6.3049 CH2_sp3       1 RES
    1452 _CH2        24.0550     8.2969     6.8124 CH2_sp3       1 RES
    1453 _CH2        23.8882     7.7984     8.2599 CH2_sp3       1 RES
    1454 _CH3        25.6757     8.7705     4.8575 CH3_sp3       1 RES
    1455 _CH3        22.4344     7.8234     8.7673 CH3_sp3       1 RES
    1456 _CH2        12.8304    28.2408    29.7419 CH2_sp3       1 RES
    1457 _CH2        12.2515    29.5090    29.0874 CH2_sp3       1 RES
    1458 _CH2        12.5257    29.6145    27.5756 CH2_sp3       1 RES
    1459 _CH3        12.5562    28.1352    31.2536 CH3_sp3       1 RES
    1460 _CH3        11.9469    30.8827    26.9211 CH3_sp3       1 RES
    1461 _CH2        21.8019    17.7202    29.7656 CH2_sp3       1 RES
    1462 _CH2        22.5652    19.0576    29.7811 CH2_sp3       1 RES
    1463 _CH2        23.6803    19.1546    28.7234 CH2_sp3       1 RES
    1464 _CH3        20.6868    17.6232    30.8233 CH3_sp3       1 RES
    1465 _CH3        24.4437    20.4920    28.7388 CH3_sp3       1 RES
    1466 _CH2        27.9813    26.5125    13.7707 CH2_sp3       1 RES
    1467 _CH2        27.9280    26.2310    12.2576 CH2_sp3       1 RES
    1468 _CH2        26.7287    26.8797    11.5417 CH2_sp3       1 RES
    1469 _CH3        29.1806    25.8639    14.4866 CH3_sp3       1 RES
    1470 _CH3        26.6754    26.5982    10.0286 CH3_sp3       1 RES
    1471 _CH2        23.6237    32.5541     4.9930 CH2_sp3       1 RES
    1472 _CH2        23.3106    32.1001     3.5552 CH2_sp3       1 RES
    1473 _CH2        22.5174    30.7827     3.4730 CH2_sp3       1 RES
    1474 _CH3        24.4170    33.8715     5.0752 CH3_sp3       1 RES
    1475 _CH3        22.2043    30.3287     2.0351 CH3_sp3       1 RES
    1476 _CH2        26.2709    25.5376    23.8017 CH2_sp3       1 RES
    1477 _CH2        27.6744    25.1952    24.3351 CH2_sp3       1 RES
    1478 _CH2        28.2153    26.2024    25.3669 CH2_sp3       1 RES
    1479 _CH3        25.7301    24.5304    22.7699 CH3_sp3       1 RES
    1480 _CH3        29.6188    25.8601    25.9003 CH3_sp3       1 RES
    1481 _CH2        26.2878    34.0021    14.8473 CH2_sp3       1 RES
    1482 _CH2        26.8676    32.8481    15.6862 CH2_sp3       1 RES
    1483 _CH2        26.4774    31.4473    15.1788 CH2_sp3       1 RES
    1484 _CH3        26.6779    35.4028    15.3547 CH3_sp3       1 RES
    1485 _CH3        27.0572    30.2933    16.0177 CH3_sp3       1 RES
    1486 _CH2        22.2825    26.3097     6.0421 CH2_sp3       1 RES
    1487 _CH2        20.9682    26.4763     6.8273 CH2_sp3       1 RES
    1488 _CH2        20.9745    27.6572     7.8157 CH2_sp3       1 RES
    1489 _CH3        22.2763    25.1288     5.0537 CH3_sp3       1 RES
    1490 _CH3        19.6602    27.8237     8.6009 CH3_sp3       1 RES
    1491 _CH2        10.0937    35.6925     9.8268 CH2_sp3       1 RES
    1492 _CH2         9.4525    34.7954    10.9019 CH2_sp3       1 RES
    1493 _CH2        10.4667    34.1443    11.8606 CH2_sp3       1 RES
    1494 _CH3         9.0795    36.3437     8.8681 CH3_sp3       1 RES
    1495 _CH3         9.8256    33.2472    12.9357 CH3_sp3       1 RES
    1496 _CH2        12.1122    12.4647    25.9656 CH2_sp3       1 RES
    1497 _CH2        11.8117    12.8373    24.5019 CH2_sp3       1 RES
    1498 _CH2        10.4795    13.5847    24.3066 CH2_sp3       1 RES
    1499 _CH3        13.4444    11.7172    26.1609 CH3_sp3       1 RES
    1500 _CH3        10.1790    13.9573    22.8428 CH3_sp3       1 RES
@<TRIPOS>BOND
       1        2        1 1
       2        3        2 1
       3        4        1 1
       4        5        3 1
       5        7        6 1
       6        8        7 1
       7        9        6 1
       8       10        8 1
       9       12       11 1
      10       13       12 1
      11       14       11 1
      12       15       13 1
      13       17       16 1
      14       18       17 1
      15       19       16 1
      16       20       18 1
      17       22       21 1
      18       23       22 1
      19       24       21 1
      20       25       23 1
      21       27       26 1
      22       28       27 1
      23       29       26 1
      24       30       28 1
      25       32       31 1
      26       33       32 1
      27       34       31 1
      28       35       33 1
      29       37       36 1
      30       38       37 1
      31       39       36 1
      32       40       38 1
      33       42       41 1
      34       43       42 1
      35       44       41 1
      36       45       43 1
      37       47       46 1
      38       48       47 1
      39       49       46 1
      40       50       48 1
      41       52       51 1
      42       53       52 1
      43       54       51 1
      44       55       53 1
      45       57       56 1
      46       58       57 1
      47       59       56 1
      48       60       58 1
      49       62       61 1
      50       63       62 1
      51       64       61 1
      52       65       63 1
      53       67       66 1
      54       68       67 1
      55       69       66 1
      56       70       68 1
      57       72       71 1
      58       73       72 1
      59       74       71 1
      60       75       73 1
      61       77       76 1
      62       78       77 1
      63       79       76 1
      64       80       78 1
      65       82       81 1
      66       83       82 1
      67       84       81 1
      68       85       83 1
      69       87       86 1
      70       88       87 1
      71       89       86 1
      72       90       88 1
      73       92       91 1
      74       93       92 1
      75       94       91 1
      76       95       93 1
      77       97       96 1
      78       98       97 1
      79       99       96 1
      80      100       98 1
      81      102      101 1
      82      103      102 1
      83      104      101 1
      84      105      103 1
      85      107      106 1
      86      108      107 1
      87      109      106 1
      88      110      108 1
      89      112      111 1
      90      113      112 1
      91      114      111 1
      92      115      113 1
      93      117      116 1
      94      118      117 1
      95      119      116 1
      96      120      118 1
      97      122      121 1
      98      123      122 1
      99      124      121 1
     100      125      123 1
     101      127      126 1
     102      128      127 1
     103      129      126 1
     104      130      128 1
     105      132      131 1
     106      133      132 1
     107      134      131 1
     108      135      133 1
     109      137      136 1
     110      138      137 1
     111      139      136 1
     112      140      138 1
     113      142      141 1
     114      143      142 1
     115      144      141 1
     116      145      143 1
     117      147      146 1
     118      148      147 1
     119      149      146 1
     120      150      148 1
     121      152      151 1
     122      153      152 1
     123      154      151 1
     124      155      153 1
     125      157      156 1
     126      158      157 1
     127      159      156 1
     128      160      158 1
     129      162      161 1
     130      163      162 1
     131      164      161 1
     132      165      163 1
     133      167      166 1
     134      168      167 1
     135      169      166 1
     136      170      168 1
     137      172      171 1
     138      173      172 1
     139      174      171 1
     140      175      173 1
     141      177      176 1
     142      178      177 1
     143      179      176 1
     144      180      178 1
     145      182      181 1
     146      183      182 1
     147      184      181 1
     148      185      183 1
     149      187      186 1
     150      188      187 1
     151      189      186 1
     152      190      188 1
     153      192      191 1
     154      193      192 1
     155      194      191 1
     156      195      193 1
     157      197      196 1
     158      198      197 1
     159      199      196 1
     160      200      198 1
     161      202      201 1
     162      203      202 1
     163      204      201 1
     164      205      203 1
     165      207      206 1
     166      208      207 1
     167      209      206 1
     168      210      208 1
     169      212      211 1
     170      213      212 1
     171      214      211 1
     172      215      213 1
     173      217      216 1
     174      218      217 1
     175      219      216 1
     176      220      218 1
     177      222      221 1
     178      223      222 1
     179      224      221 1
     180      225      223 1
     181      227      226 1
     182      228      227 1
     183      229      226 1
     184      230      228 1
     185      232      231 1
     186      233      232 1
     187      234      231 1
     188      235      233 1
     189      237      236 1
     190      238      237 1
     191      239      236 1
     192      240      238 1
     193      242      241 1
     194      243      242 1
     195      244      241 1
     196      245      243 1
     197      247      246 1
     198      248      247 1
     199      249      246 1
     200      250      248 1
     201      252      251 1
     202      253      252 1
     203      254      251 1
     204      255      253 1
     205      257      256 1
     206      258      257 1
     207      259      256 1
     208      260      258 1
     209      262      261 1
     210      263      262 1
     211      264      261 1
     212      265      263 1
     213      267      266 1
     214      268      267 1
     215      269      266 1
     216      270      268 1
     217      272      271 1
     218      273      272 1
     219      274      271 1
     220      275      273 1
     221      277      276 1
     222      278      277 1
     223      279      276 1
     224      280      278 1
     225      282      281 1
     226      283      282 1
     227      284      281 1
     228      285      283 1
     229      287      286 1
     230      288      287 1
     231      289      286 1
     232      290      288 1
     233      292      291 1
     234      293      292 1
     235      294      291 1
     236      295      293 1
     237      297      296 1
     238      298      297 1
     239      299      296 1
     240      300      298 1
     241      302      301 1
     242      303      302 1
     243      304      301 1
     244      305      303 1
     245      307      306 1
     246      308      307 1
     247      309      306 1
     248      310      308 1
     249      312      311 1
     250      313      312 1
     251      314      311 1
     252      315      313 1
     253      317      316 1
     254      318      317 1
     255      319      316 1
     256      320      318 1
     257      322      321 1
     258      323      322 1
     259      324      321 1
     260      325      323 1
     261      327      326 1
     262      328      327 1
     263      329      326 1
     264      330      328 1
     265      332      331 1
     266      333      332 1
     267      334      331 1
     268      335      333 1
     269      337      336 1
     270      338      337 1
     271      339      336 1
     272      340      338 1
     273      342      341 1
     274      343      342 1
     275      344      341 1
     276      345      343 1
     277      347      346 1
     278      348      347 1
     279      349      346 1
     280      350      348 1
     281      352      351 1
     282      353      352 1
     283      354      351 1
     284      355      353 1
     285      357      356 1
     286      358      357 1
     287      359      356 1
     288      360      358 1
     289      362      361 1
     290      363      362 1
     291      364      361 1
     292      365      363 1
     293      367      366 1
     294      368      367 1
     295      369      366 1
     296      370      368 1
     297      372      371 1
     298      373      372 1
     299      374      371 1
     300      375      373 1
     301      377      376 1
     302      378      377 1
     303      379      376 1
     304      380      378 1
     305      382      381 1
     306      383      382 1
     307      384      381 1
     308      385      383 1
     309      387      386 1
     310      388      387 1
     311      389      386 1
     312      390      388 1
     313      392      391 1
     314      393      392 1
     315      394      391 1
     316      395      393 1
     317      397      396 1
     318      398      397 1
     319      399      396 1
     320      400      398 1
     321      402      401 1
     322      403      402 1
     323      404      401 1
     324      405      403 1
     325      407      406 1
     326      408      407 1
     327      409      406 1
     328      410      408 1
     329      412      411 1
     330      413      412 1
     331      414      411 1
     332      415      413 1
     333      417      416 1
     334      418      417 1
     335      419      416 1
     336      420      418 1
     337      422      421 1
     338      423      422 1
     339      424      421 1
     340      425      423 1
     341      427      426 1
     342      428      427 1
     343      429      426 1
     344      430      428 1
     345      432      431 1
     346      433      432 1
     347      434      431 1
     348      435      433 1
     349      437      436 1
     350      438      437 1
     351      439      436 1
     352      440      438 1
     353      442      441 1
     354      443      442 1
     355      444      441 1
     356      445      443 1
     357      447      446 1
     358      448      447 1
     359      449      446 1
     360      450      448 1
     361      452      451 1
     362      453      452 1
     363      454      451 1
     364      455      453 1
     365      457      456 1
     366      458      457 1
     367      459      456 1
     368      460      458 1
     369      462      461 1
     370      463      462 1
     371      464      461 1
     372      465      463 1
     373      467      466 1
     374      468      467 1
     375      469      466 1
     376      470      468 1
     377      472      471 1
     378      473      472 1
     379      474      471 1
     380      475      473 1
     381      477      476 1
     382      478      477 1
     383      479      476 1
     384      480      478 1
     385      482      481 1
     386      483      482 1
     387      484      481 1
     388      485      483 1
     389      487      486 1
     390      488      487 1
     391      489      486 1
     392      490      488 1
     393      492      491 1
     394      493      492 1
     395      494      491 1
     396      495      493 1
     397      497      496 1
     398      498      497 1
     399      499      496 1
     400      500      498 1
     401      502      501 1
     402      503      502 1
     403      504      501 1
     404      505      503 1
     405      507      506 1
     406      508      507 1
     407      509      506 1
     408      510      508 1
     409      512      511 1
     410      513      512 1
     411      514      511 1
     412      515      513 1
     413      517      516 1
     414      518      517 1
     415      519      516 1
     416      520      518 1
     417      522      521 1
     418      523      522 1
     419      524      521 1
     420      525      523 1
     421      527      526 1
     422      528      527 1
     423      529      526 1
     424      530      528 1
     425      532      531 1
     426      533      532 1
     427      534      531 1
     428      535      533 1
     429      537      536 1
     430      538      537 1
     431      539      536 1
     432      540      538 1
     433      542      541 1
     434      543      542 1
     435      544      541 1
     436      545      543 1
     437      547      546 1
     438      548      547 1
     439      549      546 1
     440      550      548 1
     441      552      551 1
     442      553      552 1
     443      554      551 1
     444      555      553 1
     445      557      556 1
     446      558      557 1
     447      559      556 1
     448      560      558 1
     449      562      561 1
     450      563      562 1
     451      564      561 1
     452      565      563 1
     453      567      566 1
     454      568      567 1
     455      569      566 1
     456      570      568 1
     457      572      571 1
     458      573      572 1
     459      574      571 1
     460      575      573 1
     461      577      576 1
     462      578      577 1
     463      579      576 1
     464      580      578 1
     465      582      581 1
     466      583      582 1
     467      584      581 1
     468      585      583 1
     469      587      586 1
     470      588      587 1
     471      589      586 1
     472      590      588 1
     473      592      591 1
     474      593      592 1
     475      594      591 1
     476      595      593 1
     477      597      596 1
     478      598      597 1
     479      599      596 1
     480      600      598 1
     481      602      601 1
     482      603      602 1
     483      604      601 1
     484      605      603 1
     485      607      606 1
     486      608      607 1
     487      609      606 1
     488      610      608 1
     489      612      611 1
     490      613      612 1
     491      614      611 1
     492      615      613 1
     493      617      616 1
     494      618      617 1
     495      619      616 1
     496      620      618 1
     497      622      621 1
     498      623      622 1
     499      624      621 1
     500      625      623 1
     501      627      626 1
     502      628      627 1
     503      629      626 1
     504      630      628 1
     505      632      631 1
     506      633      632 1
     507      634      631 1
     508      635      633 1
     509      637      636 1
     510      638      637 1
     511      639      636 1
     512      640      638 1
     513      642      641 1
     514      643      642 1
     515      644      641 1
     516      645      643 1
     517      647      646 1
     518      648      647 1
     519      649      646 1
     520      650      648 1
     521      652      651 1
     522      653      652 1
     523      654      651 1
     524      655      653 1
     525      657      656 1
     526      658      657 1
     527      659      656 1
     528      660      658 1
     529      662      661 1
     530      663      662 1
     531      664      661 1
     532      665      663 1
     533      667      666 1
     534      668      667 1
     535      669      666 1
     536      670      668 1
     537      672      671 1
     538      673      672 1
     539      674      671 1
     540      675      673 1
     541      677      676 1
     542      678      677 1
     543      679      676 1
     544      680      678 1
     545      682      681 1
     546      683      682 1
     547      684      681 1
     548      685      683 1
     549      687      686 1
     550      688      687 1
     551      689      686 1
     552      690      688 1
     553      692      691 1
     554      693      692 1
     555      694      691 1
     556      695      693 1
     557      697      696 1
     558      698      697 1
     559      699      696 1
     560      700      698 1
     561      702      701 1
     562      703      702 1
     563      704      701 1
     564      705      703 1
     565      707      706 1
     566      708      707 1
     567      709      706 1
     568      710      708 1
     569      712      711 1
     570      713      712 1
     571      714      711 1
     572      715      713 1
     573      717      716 1
     574      718      717 1
     575      719      716 1
     576      720      718 1
     577      722      721 1
     578      723      722 1
     579      724      721 1
     580      725      723 1
     581      727      726 1
     582      728      727 1
     583      729      726 1
     584      730      728 1
     585      732      731 1
     586      733      732 1
     587      734      731 1
     588      735      733 1
     589      737      736 1
     590      738      737 1
     591      739      736 1
     592      740      738 1
     593      742      741 1
     594      743      742 1
     595      744      741 1
     596      745      743 1
     597      747      746 1
     598      748      747 1
     599      749      746 1
     600      750      748 1
     601      752      751 1
     602      753      752 1
     603      754      751 1
     604      755      753 1
     605      757      756 1
     606      758      757 1
     607      759      756 1
     608      760      758 1
     609      762      761 1
     610      763      762 1
     611      764      761 1
     612      765      763 1
     613      767      766 1
     614      768      767 1
     615      769      766 1
     616      770      768 1
     617      772      771 1
     618      773      772 1
     619      774      771 1
     620      775      773 1
     621      777      776 1
     622      778      777 1
     623      779      776 1
     624      780      778 1
     625      782      781 1
     626      783      782 1
     627      784      781 1
     628      785      783 1
     629      787      786 1
     630      788      787 1
     631      789      786 1
     632      790      788 1
     633      792      791 1
     634      793      792 1
     635      794      791 1
     636      795      793 1
     637      797      796 1
     638      798      797 1
     639      799      796 1
     640      800      798 1
     641      802      801 1
     642      803      802 1
     643      804      801 1
     644      805      803 1
     645      807      806 1
     646      808      807 1
     647      809      806 1
     648      810      808 1
     649      812      811 1
     650      813      812 1
     651      814      811 1
     652      815      813 1
     653      817      816 1
     654      818      817 1
     655      819      816 1
     656      820      818 1
     657      822      821 1
     658      823      822 1
     659      824      821 1
     660      825      823 1
     661      827      826 1
     662      828      827 1
     663      829      826 1
     664      830      828 1
     665      832      831 1
     666      833      832 1
     667      834      831 1
     668      835      833 1
     669      837      836 1
     670      838      837 1
     671      839      836 1
     672      840      838 1
     673      842      841 1
     674      843      842 1
     675      844      841 1
     676      845      843 1
     677      847      846 1
     678      848      847 1
     679      849      846 1
     680      850      848 1
     681      852      851 1
     682      853      852 1
     683      854      851 1
     684      855      853 1
     685      857      856 1
     686      858      857 1
     687      859      856 1
     688      860      858 1
     689      862      861 1
     690      863      862 1
     691      864      861 1
     692      865      863 1
     693      867      866 1
     694      868      867 1
     695      869      866 1
     696      870      868 1
     697      872      871 1
     698      873      872 1
     699      874      871 1
     700      875      873 1
     701      877      876 1
     702      878      877 1
     703      879      876 1
     704      880      878 1
     705      882      881 1
     706      883      882 1
     707      884      881 1
     708      885      883 1
     709      887      886 1
     710      888      887 1
     711      889      886 1
     712      890      888 1
     713      892      891 1
     714      893      892 1
     715      894      891 1
     716      895      893 1
     717      897      896 1
     718      898      897 1
     719      899      896 1
     720      900      898 1
     721      902      901 1
     722      903      902 1
     723      904      901 1
     724      905      903 1
     725      907      906 1
     726      908      907 1
     727      909      906 1
     728      910      908 1
     729      912      911 1
     730      913      912 1
     731      914      911 1
     732      915      913 1
     733      917      916 1
     734      918      917 1
     735      919      916 1
     736      920      918 1
     737      922      921 1
     738      923      922 1
     739      924      921 1
     740      925      923 1
     741      927      926 1
     742      928      927 1
     743      929      926 1
     744      930      928 1
     745      932      931 1
     746      933      932 1
     747      934      931 1
     748      935      933 1
     749      937      936 1
     750      938      937 1
     751      939      936 1
     752      940      938 1
     753      942      941 1
     754      943      942 1
     755      944      941 1
     756      945      943 1
     757      947      946 1
     758      948      947 1
     759      949      946 1
     760      950      948 1
     761      952      951 1
     762      953      952 1
     763      954      951 1
     764      955      953 1
     765      957      956 1
     766      958      957 1
     767      959      956 1
     768      960      958 1
     769      962      961 1
     770      963      962 1
     771      964      961 1
     772      965      963 1
     773      967      966 1
     774      968      967 1
     775      969      966 1
     776      970      968 1
     777      972      971 1
     778      973      972 1
     779      974      971 1
     780      975      973 1
     781      977      976 1
     782      978      977 1
     783      979      976 1
     784      980      978 1
     785      982      981 1
     786      983      982 1
     787      984      981 1
     788      985      983 1
     789      987      986 1
     790      988      987 1
     791      989      986 1
     792      990      988 1
     793      992      991 1
     794      993      992 1
     795      994      991 1
     796      995      993 1
     797      997      996 1
     798      998      997 1
     799      999      996 1
     800     1000      998 1
     801     1002     1001 1
     802     1003     1002 1
     803     1004     1001 1
     804     1005     1003 1
     805     1007     1006 1
     806     1008     1007 1
     807     1009     1006 1
     808     1010     1008 1
     809     1012     1011 1
     810     1013     1012 1
     811     1014     1011 1
     812     1015     1013 1
     813     1017     1016 1
     814     1018     1017 1
     815     1019     1016 1
     816     1020     1018 1
     817     1022     1021 1
     818     1023     1022 1
     819     1024     1021 1
     820     1025     1023 1
     821     1027     1026 1
     822     1028     1027 1
     823     1029     1026 1
     824     1030     1028 1
     825     1032     1031 1
     826     1033     1032 1
     827     1034     1031 1
     828     1035     1033 1
     829     1037     1036 1
     830     1038     1037 1
     831     1039     1036 1
     832     1040     1038 1
     833     1042     1041 1
     834     1043     1042 1
     835     1044     1041 1
     836     1045     1043 1
     837     1047     1046 1
     838     1048     1047 1
     839     1049     1046 1
     840     1050     1048 1
     841     1052     1051 1
     842     1053     1052 1
     843     1054     1051 1
     844     1055     1053 1
     845     1057     1056 1
     846     1058     1057 1
     847     1059     1056 1
     848     1060     1058 1
     849     1062     1061 1
     850     1063     1062 1
     851     1064     1061 1
     852     1065     1063 1
     853     1067     1066 1
     854     1068     1067 1
     855     1069     1066 1
     856     1070     1068 1
     857     1072     1071 1
     858     1073     1072 1
     859     1074     1071 1
     860     1075     1073 1
     861     1077     1076 1
     862     1078     1077 1
     863     1079     1076 1
     864     1080     1078 1
     865     1082     1081 1
     866     1083     1082 1
     867     1084     1081 1
     868     1085     1083 1
     869     1087     1086 1
     870     1088     1087 1
     871     1089     1086 1
     872     1090     1088 1
     873     1092     1091 1
     874     1093     1092 1
     875     1094     1091 1
     876     1095     1093 1
     877     1097     1096 1
     878     1098     1097 1
     879     1099     1096 1
     880     1100     1098 1
     881     1102     1101 1
     882     1103     1102 1
     883     1104     1101 1
     884     1105     1103 1
     885     1107     1106 1
     886     1108     1107 1
     887     1109     1106 1
     888     1110     1108 1
     889     1112     1111 1
     890     1113     1112 1
     891     1114     1111 1
     892     1115     1113 1
     893     1117     1116 1
     894     1118     1117 1
     895     1119     1116 1
     896     1120     1118 1
     897     1122     1121 1
     898     1123     1122 1
     899     1124     1121 1
     900     1125     1123 1
     901     1127     1126 1
     902     1128     1127 1
     903     1129     1126 1
     904     1130     1128 1
     905     1132     1131 1
     906     1133     1132 1
     907     1134     1131 1
     908     1135     1133 1
     909     1137     1136 1
     910     1138     1137 1
     911     1139     1136 1
     912     1140     1138 1
     913     1142     1141 1
     914     1143     1142 1
     915     1144     1141 1
     916     1145     1143 1
     917     1147     1146 1
     918     1148     1147 1
     919     1149     1146 1
     920     1150     1148 1
     921     1152     1151 1
     922     1153     1152 1
     923     1154     1151 1
     924     1155     1153 1
     925     1157     1156 1
     926     1158     1157 1
     927     1159     1156 1
     928     1160     1158 1
     929     1162     1161 1
     930     1163     1162 1
     931     1164     1161 1
     932     1165     1163 1
     933     1167     1166 1
     934     1168     1167 1
     935     1169     1166 1
     936     1170     1168 1
     937     1172     1171 1
     938     1173     1172 1
     939     1174     1171 1
     940     1175     1173 1
     941     1177     1176 1
     942     1178     1177 1
     943     1179     1176 1
     944     1180     1178 1
     945     1182     1181 1
     946     1183     1182 1
     947     1184     1181 1
     948     1185     1183 1
     949     1187     1186 1
     950     1188     1187 1
     951     1189     1186 1
     952     1190     1188 1
     953     1192     1191 1
     954     1193     1192 1
     955     1194     1191 1
     956     1195     1193 1
     957     1197     1196 1
     958     1198     1197 1
     959     1199     1196 1
     960     1200     1198 1
     961     1202     1201 1
     962     1203     1202 1
     963     1204     1201 1
     964     1205     1203 1
     965     1207     1206 1
     966     1208     1207 1
     967     1209     1206 1
     968     1210     1208 1
     969     1212     1211 1
     970     1213     1212 1
     971     1214     1211 1
     972     1215     1213 1
     973     1217     1216 1
     974     1218     1217 1
     975     1219     1216 1
     976     1220     1218 1
     977     1222     1221 1
     978     1223     1222 1
     979     1224     1221 1
     980     1225     1223 1
     981     1227     1226 1
     982     1228     1227 1
     983     1229     1226 1
     984     1230     1228 1
     985     1232     1231 1
     986     1233     1232 1
     987     1234     1231 1
     988     1235     1233 1
     989     1237     1236 1
     990     1238     1237 1
     991     1239     1236 1
     992     1240     1238 1
     993     1242     1241 1
     994     1243     1242 1
     995     1244     1241 1
     996     1245     1243 1
     997     1247     1246 1
     998     1248     1247 1
     999     1249     1246 1
    1000     1250     1248 1
    1001     1252     1251 1
    1002     1253     1252 1
    1003     1254     1251 1
    1004     1255     1253 1
    1005     1257     1256 1
    1006     1258     1257 1
    1007     1259     1256 1
    1008     1260     1258 1
    1009     1262     1261 1
    1010     1263     1262 1
    1011     1264     1261 1
    1012     1265     1263 1
    1013     1267     1266 1
    1014     1268     1267 1
    1015     1269     1266 1
    1016     1270     1268 1
    1017     1272     1271 1
    1018     1273     1272 1
    1019     1274     1271 1
    1020     1275     1273 1
    1021     1277     1276 1
    1022     1278     1277 1
    1023     1279     1276 1
    1024     1280     1278 1
    1025     1282     1281 1
    1026     1283     1282 1
    1027     1284     1281 1
    1028     1285     1283 1
    1029     1287     1286 1
    1030     1288     1287 1
    1031     1289     1286 1
    1032     1290     1288 1
    1033     1292     1291 1
    1034     1293     1292 1
    1035     1294     1291 1
    1036     1295     1293 1
    1037     1297     1296 1
    1038     1298     1297 1
    1039     1299     1296 1
    1040     1300     1298 1
    1041     1302     1301 1
    1042     1303     1302 1
    1043     1304     1301 1
    1044     1305     1303 1
    1045     1307     1306 1
    1046     1308     1307 1
    1047     1309     1306 1
    1048     1310     1308 1
    1049     1312     1311 1
    1050     1313     1312 1
    1051     1314     1311 1
    1052     1315     1313 1
    1053     1317     1316 1
    1054     1318     1317 1
    1055     1319     1316 1
    1056     1320     1318 1
    1057     1322     1321 1
    1058     1323     1322 1
    1059     1324     1321 1
    1060     1325     1323 1
    1061     1327     1326 1
    1062     1328     1327 1
    1063     1329     1326 1
    1064     1330     1328 1
    1065     1332     1331 1
    1066     1333     1332 1
    1067     1334     1331 1
    1068     1335     1333 1
    1069     1337     1336 1
    1070     1338     1337 1
    1071     1339     1336 1
    1072     1340     1338 1
    1073     1342     1341 1
    1074     1343     1342 1
    1075     1344     1341 1
    1076     1345     1343 1
    1077     1347     1346 1
    1078     1348     1347 1
    1079     1349     1346 1
    1080     1350     1348 1
    1081     1352     1351 1
    1082     1353     1352 1
    1083     1354     1351 1
    1084     1355     1353 1
    1085     1357     1356 1
    1086     1358     1357 1
    1087     1359     1356 1
    1088     1360     1358 1
    1089     1362     1361 1
    1090     1363     1362 1
    1091     1364     1361 1
    1092     1365     1363 1
    1093     1367     1366 1
    1094     1368     1367 1
    1095     1369     1366 1
    1096     1370     1368 1
    1097     1372     1371 1
    1098     1373     1372 1
    1099     1374     1371 1
    1100     1375     1373 1
    1101     1377     1376 1
    1102     1378     1377 1
    1103     1379     1376 1
    1104     1380     1378 1
    1105     1382     1381 1
    1106     1383     1382 1
    1107     1384     1381 1
    1108     1385     1383 1
    1109     1387     1386 1
    1110     1388     1387 1
    1111     1389     1386 1
    1112     1390     1388 1
    1113     1392     1391 1
    1114     1393     1392 1
    1115     1394     1391 1
    1116     1395     1393 1
    1117     1397     1396 1
    1118     1398     1397 1
    1119     1399     1396 1
    1120     1400     1398 1
    1121     1402     1401 1
    1122     1403     1402 1
    1123     1404     1401 1
    1124     1405     1403 1
    1125     1407     1406 1
    1126     1408     1407 1
    1127     1409     1406 1
    1128     1410     1408 1
    1129     1412     1411 1
    1130     1413     1412 1
    1131     1414     1411 1
    1132     1415     1413 1
    1133     1417     1416 1
    1134     1418     1417 1
    1135     1419     1416 1
    1136     1420     1418 1
    1137     1422     1421 1
    1138     1423     1422 1
    1139     1424     1421 1
    1140     1425     1423 1
    1141     1427     1426 1
    1142     1428     1427 1
    1143     1429     1426 1
    1144     1430     1428 1
    1145     1432     1431 1
    1146     1433     1432 1
    1147     1434     1431 1
    1148     1435     1433 1
    1149     1437     1436 1
    1150     1438     1437 1
    1151     1439     1436 1
    1152     1440     1438 1
    1153     1442     1441 1
    1154     1443     1442 1
    1155     1444     1441 1
    1156     1445     1443 1
    1157     1447     1446 1
    1158     1448     1447 1
    1159     1449     1446 1
    1160     1450     1448 1
    1161     1452     1451 1
    1162     1453     1452 1
    1163     1454     1451 1
    1164     1455     1453 1
    1165     1457     1456 1
    1166     1458     1457 1
    1167     1459     1456 1
    1168     1460     1458 1
    1169     1462     1461 1
    1170     1463     1462 1
    1171     1464     1461 1
    1172     1465     1463 1
    1173     1467     1466 1
    1174     1468     1467 1
    1175     1469     1466 1
    1176     1470     1468 1
    1177     1472     1471 1
    1178     1473     1472 1
    1179     1474     1471 1
    1180     1475     1473 1
    1181     1477     1476 1
    1182     1478     1477 1
    1183     1479     1476 1
    1184     1480     1478 1
    1185     1482     1481 1
    1186     1483     1482 1
    1187     1484     1481 1
    1188     1485     1483 1
    1189     1487     1486 1
    1190     1488     1487 1
    1191     1489     1486 1
    1192     1490     1488 1
    1193     1492     1491 1
    1194     1493     1492 1
    1195     1494     1491 1
    1196     1495     1493 1
    1197     1497     1496 1
    1198     1498     1497 1
    1199     1499     1496 1
    1200     1500     1498 1
@<TRIPOS>SUBSTRUCTURE
       1 RES             1 RESIDUE    0 1    ROOT      0
