@<TRIPOS>MOLECULE
RES
4500 4000 1 0 1
SMALL
USER_CHARGES
@<TRIPOS>CRYSIN
   36.4600    36.4600    36.4600    90.0000    90.0000    90.0000  1  1
@<TRIPOS>ATOM
       1 C           32.0950    30.4701    14.6331 opls_135      1 RES       -0.180000
       2 C           33.0251    30.2680    15.8298 opls_157      1 RES        0.145000
       3 O           34.0621    29.3253    15.6747 opls_154      1 RES       -0.683000
       4 H           34.4654    29.4642    14.8314 opls_155      1 RES        0.418000
       5 H           32.3610    30.0229    16.6586 opls_140      1 RES        0.060000
       6 H           33.5467    31.1705    16.1484 opls_140      1 RES        0.060000
       7 H           32.6838    31.1298    13.9959 opls_140      1 RES        0.060000
       8 H           31.1946    31.0092    14.9278 opls_140      1 RES        0.060000
       9 H           31.7629    29.5787    14.1009 opls_140      1 RES        0.060000
      10 C           22.9601    20.7911    12.9507 opls_135      1 RES       -0.180000
      11 C           22.0788    21.8207    13.6585 opls_157      1 RES        0.145000
      12 O           21.3369    22.6930    12.8357 opls_154      1 RES       -0.683000
      13 H           20.9394    22.1836    12.1462 opls_155      1 RES        0.418000
      14 H           22.7565    22.3539    14.3252 opls_140      1 RES        0.060000
      15 H           21.3248    21.3877    14.3159 opls_140      1 RES        0.060000
      16 H           22.2378    20.0212    12.6792 opls_140      1 RES        0.060000
      17 H           23.6735    20.3475    13.6452 opls_140      1 RES        0.060000
      18 H           23.5356    21.1318    12.0900 opls_140      1 RES        0.060000
      19 C            8.1107    12.4595     6.2980 opls_135      1 RES       -0.180000
      20 C            7.3353    13.1909     7.3942 opls_157      1 RES        0.145000
      21 O            6.9349    12.4236     8.5073 opls_154      1 RES       -0.683000
      22 H            7.6659    11.8888     8.7771 opls_155      1 RES        0.418000
      23 H            6.4905    13.6475     6.8784 opls_140      1 RES        0.060000
      24 H            7.8735    14.0267     7.8412 opls_140      1 RES        0.060000
      25 H            9.1172    12.4253     6.7151 opls_140      1 RES        0.060000
      26 H            8.1490    13.0552     5.3859 opls_140      1 RES        0.060000
      27 H            7.7556    11.4706     6.0082 opls_140      1 RES        0.060000
      28 C           26.7023    16.8287    33.8519 opls_135      1 RES       -0.180000
      29 C           27.9482    16.6160    32.9916 opls_157      1 RES        0.145000
      30 O           29.1906    16.9046    33.5926 opls_154      1 RES       -0.683000
      31 H           29.1943    16.5300    34.4602 opls_155      1 RES        0.418000
      32 H           27.7714    17.2115    32.0959 opls_140      1 RES        0.060000
      33 H           28.0720    15.5959    32.6279 opls_140      1 RES        0.060000
      34 H           26.6885    15.9244    34.4603 opls_140      1 RES        0.060000
      35 H           25.8018    16.8299    33.2377 opls_140      1 RES        0.060000
      36 H           26.6631    17.7312    34.4619 opls_140      1 RES        0.060000
      37 C            4.4135    29.1886     5.8095 opls_135      1 RES       -0.180000
      38 C            3.3743    29.2613     4.6903 opls_157      1 RES        0.145000
      39 O            3.7961    28.8598     3.4062 opls_154      1 RES       -0.683000
      40 H            4.2839    28.0550     3.4926 opls_155      1 RES        0.418000
      41 H            3.0196    30.2919     4.7081 opls_140      1 RES        0.060000
      42 H            2.4841    28.6574     4.8665 opls_140      1 RES        0.060000
      43 H            4.3970    28.1296     6.0671 opls_140      1 RES        0.060000
      44 H            4.0822    29.7485     6.6840 opls_140      1 RES        0.060000
      45 H            5.4207    29.5370     5.5810 opls_140      1 RES        0.060000
      46 C            7.3650    12.2783    24.7688 opls_135      1 RES       -0.180000
      47 C            7.3490    12.7319    23.3087 opls_157      1 RES        0.145000
      48 O            7.3480    14.1227    23.0768 opls_154      1 RES       -0.683000
      49 H            7.9898    14.5186    23.6463 opls_155      1 RES        0.418000
      50 H            6.4801    12.2374    22.8745 opls_140      1 RES        0.060000
      51 H            8.1948    12.3761    22.7204 opls_140      1 RES        0.060000
      52 H            8.4180    12.3854    25.0290 opls_140      1 RES        0.060000
      53 H            7.1083    11.2221    24.8502 opls_140      1 RES        0.060000
      54 H            6.7168    12.8099    25.4655 opls_140      1 RES        0.060000
      55 C           33.7456    15.2219    14.2757 opls_135      1 RES       -0.180000
      56 C           33.6721    14.0534    15.2591 opls_157      1 RES        0.145000
      57 O           33.7181    14.3755    16.6311 opls_154      1 RES       -0.683000
      58 H           33.1394    15.1068    16.7835 opls_155      1 RES        0.418000
      59 H           34.4827    13.3887    14.9607 opls_140      1 RES        0.060000
      60 H           32.7693    13.4493    15.1694 opls_140      1 RES        0.060000
      61 H           32.7210    15.5936    14.2867 opls_140      1 RES        0.060000
      62 H           33.9600    14.8679    13.2673 opls_140      1 RES        0.060000
      63 H           34.4677    16.0103    14.4880 opls_140      1 RES        0.060000
      64 C           16.1453     6.4023    14.8236 opls_135      1 RES       -0.180000
      65 C           15.2892     5.7318    15.8986 opls_157      1 RES        0.145000
      66 O           15.7091     5.8922    17.2350 opls_154      1 RES       -0.683000
      67 H           15.9377     6.7996    17.3670 opls_155      1 RES        0.418000
      68 H           15.2409     4.6843    15.6008 opls_140      1 RES        0.060000
      69 H           14.2514     6.0645    15.9159 opls_140      1 RES        0.060000
      70 H           15.8035     7.4362    14.8724 opls_140      1 RES        0.060000
      71 H           15.8984     6.0170    13.8343 opls_140      1 RES        0.060000
      72 H           17.2278     6.3254    14.9255 opls_140      1 RES        0.060000
      73 C            5.5397     2.9482    16.9831 opls_135      1 RES       -0.180000
      74 C            4.3770     2.9618    15.9903 opls_157      1 RES        0.145000
      75 O            4.6778     3.3440    14.6668 opls_154      1 RES       -0.683000
      76 H            5.4681     2.8988    14.4020 opls_155      1 RES        0.418000
      77 H            3.6281     3.6072    16.4494 opls_140      1 RES        0.060000
      78 H            3.8795     1.9994    15.8707 opls_140      1 RES        0.060000
      79 H            6.0245     1.9994    16.7532 opls_140      1 RES        0.060000
      80 H            5.1741     2.8947    18.0086 opls_140      1 RES        0.060000
      81 H            6.2395     3.7831    16.9462 opls_140      1 RES        0.060000
      82 C           26.1107    25.0234    29.0851 opls_135      1 RES       -0.180000
      83 C           26.8858    25.6789    30.2286 opls_157      1 RES        0.145000
      84 O           26.4020    26.9190    30.6934 opls_154      1 RES       -0.683000
      85 H           25.4638    26.8551    30.7869 opls_155      1 RES        0.418000
      86 H           27.9122    25.7420    29.8672 opls_140      1 RES        0.060000
      87 H           26.9457    25.0736    31.1331 opls_140      1 RES        0.060000
      88 H           25.2705    24.5694    29.6103 opls_140      1 RES        0.060000
      89 H           26.6923    24.2206    28.6318 opls_140      1 RES        0.060000
      90 H           25.7819    25.6672    28.2693 opls_140      1 RES        0.060000
      91 C           31.3281     5.8411     5.3306 opls_135      1 RES       -0.180000
      92 C           30.3469     6.9114     5.8097 opls_157      1 RES        0.145000
      93 O           29.4660     6.5451     6.8479 opls_154      1 RES       -0.683000
      94 H           29.9612     6.0849     7.5082 opls_155      1 RES        0.418000
      95 H           29.8199     7.2271     4.9092 opls_140      1 RES        0.060000
      96 H           30.8218     7.8173     6.1863 opls_140      1 RES        0.060000
      97 H           32.1065     5.8885     6.0922 opls_140      1 RES        0.060000
      98 H           31.7769     6.1239     4.3785 opls_140      1 RES        0.060000
      99 H           30.9428     4.8293     5.2038 opls_140      1 RES        0.060000
     100 C           26.1995    10.6883    28.8354 opls_135      1 RES       -0.180000
     101 C           25.6476    11.5333    29.9840 opls_157      1 RES        0.145000
     102 O           26.5643    12.3701    30.6530 opls_154      1 RES       -0.683000
     103 H           27.0903    12.8120    30.0041 opls_155      1 RES        0.418000
     104 H           25.1748    10.8151    30.6540 opls_140      1 RES        0.060000
     105 H           24.8464    12.2132    29.6944 opls_140      1 RES        0.060000
     106 H           26.2334    11.4089    28.0184 opls_140      1 RES        0.060000
     107 H           25.4958     9.9036    28.5576 opls_140      1 RES        0.060000
     108 H           27.1624    10.2013    28.9898 opls_140      1 RES        0.060000
     109 C           25.9005    19.5481    28.9013 opls_135      1 RES       -0.180000
     110 C           25.6174    20.6493    27.8790 opls_157      1 RES        0.145000
     111 O           26.7286    21.3792    27.4092 opls_154      1 RES       -0.683000
     112 H           27.4206    20.7683    27.2071 opls_155      1 RES        0.418000
     113 H           24.8734    21.2865    28.3571 opls_140      1 RES        0.060000
     114 H           25.1379    20.2988    26.9651 opls_140      1 RES        0.060000
     115 H           26.2471    18.7322    28.2670 opls_140      1 RES        0.060000
     116 H           24.9805    19.2235    29.3873 opls_140      1 RES        0.060000
     117 H           26.6092    19.7745    29.6979 opls_140      1 RES        0.060000
     118 C           24.0292     9.8786    12.9249 opls_135      1 RES       -0.180000
     119 C           23.3893     8.9781    11.8677 opls_157      1 RES        0.145000
     120 O           23.5149     9.3889    10.5247 opls_154      1 RES       -0.683000
     121 H           24.4087     9.6593    10.3798 opls_155      1 RES        0.418000
     122 H           22.3487     8.8831    12.1778 opls_140      1 RES        0.060000
     123 H           23.7716     7.9574    11.8587 opls_140      1 RES        0.060000
     124 H           25.0778     9.5865    12.8684 opls_140      1 RES        0.060000
     125 H           23.6670     9.6256    13.9213 opls_140      1 RES        0.060000
     126 H           23.8991    10.9548    12.8112 opls_140      1 RES        0.060000
     127 C           28.8042    19.5473     2.7786 opls_135      1 RES       -0.180000
     128 C           30.2057    20.1574     2.8137 opls_157      1 RES        0.145000
     129 O           30.9788    19.9043     3.9654 opls_154      1 RES       -0.683000
     130 H           30.9002    18.9872     4.1795 opls_155      1 RES        0.418000
     131 H           30.0484    21.2227     2.6444 opls_140      1 RES        0.060000
     132 H           30.8532    19.8383     1.9970 opls_140      1 RES        0.060000
     133 H           29.0115    18.5171     2.4890 opls_140      1 RES        0.060000
     134 H           28.2032    19.9997     1.9897 opls_140      1 RES        0.060000
     135 H           28.2108    19.6027     3.6913 opls_140      1 RES        0.060000
     136 C           31.4719     7.2769    20.7434 opls_135      1 RES       -0.180000
     137 C           30.5033     6.5955    21.7104 opls_157      1 RES        0.145000
     138 O           30.8243     6.6625    23.0818 opls_154      1 RES       -0.683000
     139 H           31.0848     7.5485    23.2823 opls_155      1 RES        0.418000
     140 H           30.4286     5.5694    21.3506 opls_140      1 RES        0.060000
     141 H           29.4843     6.9803    21.6682 opls_140      1 RES        0.060000
     142 H           31.1771     8.3231    20.8252 opls_140      1 RES        0.060000
     143 H           31.2854     6.9582    19.7179 opls_140      1 RES        0.060000
     144 H           32.5382     7.1386    20.9223 opls_140      1 RES        0.060000
     145 C            9.2767    11.7081    29.4654 opls_135      1 RES       -0.180000
     146 C            8.0138    10.9032    29.7734 opls_157      1 RES        0.145000
     147 O            6.7979    11.4166    29.2773 opls_154      1 RES       -0.683000
     148 H            6.9329    11.6845    28.3812 opls_155      1 RES        0.418000
     149 H            8.0093    10.7991    30.8584 opls_140      1 RES        0.060000
     150 H            8.0316     9.8809    29.3957 opls_140      1 RES        0.060000
     151 H            9.4951    11.4061    28.4410 opls_140      1 RES        0.060000
     152 H           10.1071    11.3827    30.0920 opls_140      1 RES        0.060000
     153 H            9.2172    12.7917    29.5670 opls_140      1 RES        0.060000
     154 C           22.6969    22.0436     7.0602 opls_135      1 RES       -0.180000
     155 C           23.4667    20.8836     7.6924 opls_157      1 RES        0.145000
     156 O           23.0365    20.4561     8.9654 opls_154      1 RES       -0.683000
     157 H           22.0935    20.3953     8.9546 opls_155      1 RES        0.418000
     158 H           24.5070    21.2089     7.6927 opls_140      1 RES        0.060000
     159 H           23.4614    19.9680     7.1010 opls_140      1 RES        0.060000
     160 H           21.8149    21.5417     6.6624 opls_140      1 RES        0.060000
     161 H           23.2485    22.4629     6.2188 opls_140      1 RES        0.060000
     162 H           22.4329    22.8807     7.7065 opls_140      1 RES        0.060000
     163 C           18.2830    17.5767    19.0151 opls_135      1 RES       -0.180000
     164 C           18.6244    19.0337    18.7015 opls_157      1 RES        0.145000
     165 O           18.4019    19.9726    19.7297 opls_154      1 RES       -0.683000
     166 H           18.7372    19.6133    20.5368 opls_155      1 RES        0.418000
     167 H           18.0575    19.2631    17.7992 opls_140      1 RES        0.060000
     168 H           19.6658    19.1999    18.4258 opls_140      1 RES        0.060000
     169 H           19.1562    17.2553    19.5828 opls_140      1 RES        0.060000
     170 H           18.2426    16.9822    18.1024 opls_140      1 RES        0.060000
     171 H           17.3542    17.3845    19.5521 opls_140      1 RES        0.060000
     172 C           22.6324    17.7100    11.2194 opls_135      1 RES       -0.180000
     173 C           24.1102    18.0836    11.3395 opls_157      1 RES        0.145000
     174 O           24.9657    17.1140    11.9016 opls_154      1 RES       -0.683000
     175 H           24.7608    16.2771    11.5134 opls_155      1 RES        0.418000
     176 H           24.1150    19.0179    11.9009 opls_140      1 RES        0.060000
     177 H           24.5887    18.3264    10.3908 opls_140      1 RES        0.060000
     178 H           22.6257    17.0930    10.3209 opls_140      1 RES        0.060000
     179 H           22.0236    18.5922    11.0213 opls_140      1 RES        0.060000
     180 H           22.1742    17.2007    12.0672 opls_140      1 RES        0.060000
     181 C            8.3591    14.3811    26.6592 opls_135      1 RES       -0.180000
     182 C            8.5663    15.3150    27.8520 opls_157      1 RES        0.145000
     183 O            9.0871    16.5951    27.5721 opls_154      1 RES       -0.683000
     184 H            8.6288    16.9443    26.8231 opls_155      1 RES        0.418000
     185 H            9.1966    14.7509    28.5394 opls_140      1 RES        0.060000
     186 H            7.6586    15.5273    28.4170 opls_140      1 RES        0.060000
     187 H            7.4169    14.7429    26.2477 opls_140      1 RES        0.060000
     188 H            8.2042    13.3547    26.9920 opls_140      1 RES        0.060000
     189 H            9.1468    14.3478    25.9065 opls_140      1 RES        0.060000
     190 C           13.2487    22.7442     2.8616 opls_135      1 RES       -0.180000
     191 C           14.7619    22.6065     2.6906 opls_157      1 RES        0.145000
     192 O           15.4606    23.7589     2.2761 opls_154      1 RES       -0.683000
     193 H           15.1470    24.4934     2.7811 opls_155      1 RES        0.418000
     194 H           14.8878    21.7729     1.9997 opls_140      1 RES        0.060000
     195 H           15.2883    22.3008     3.5947 opls_140      1 RES        0.060000
     196 H           13.1724    23.2185     3.8401 opls_140      1 RES        0.060000
     197 H           12.7748    21.7650     2.9290 opls_140      1 RES        0.060000
     198 H           12.7067    23.2994     2.0961 opls_140      1 RES        0.060000
     199 C           30.2675     3.1295    18.2559 opls_135      1 RES       -0.180000
     200 C           29.1021     2.8584    17.3040 opls_157      1 RES        0.145000
     201 O           28.2320     3.9369    17.0435 opls_154      1 RES       -0.683000
     202 H           28.7550     4.7067    16.8794 opls_155      1 RES        0.418000
     203 H           28.5847     2.0019    17.7364 opls_140      1 RES        0.060000
     204 H           29.4038     2.5286    16.3099 opls_140      1 RES        0.060000
     205 H           30.9828     3.6301    17.6033 opls_140      1 RES        0.060000
     206 H           30.7201     2.1964    18.5914 opls_140      1 RES        0.060000
     207 H           30.0565     3.7122    19.1526 opls_140      1 RES        0.060000
     208 C           20.9439     7.7824     9.3755 opls_135      1 RES       -0.180000
     209 C           21.9007     6.6560     9.7674 opls_157      1 RES        0.145000
     210 O           23.1935     6.6980     9.2059 opls_154      1 RES       -0.683000
     211 H           23.5168     7.5835     9.2721 opls_155      1 RES        0.418000
     212 H           21.3676     5.7393     9.5153 opls_140      1 RES        0.060000
     213 H           22.0904     6.5824    10.8382 opls_140      1 RES        0.060000
     214 H           21.2683     8.5938    10.0270 opls_140      1 RES        0.060000
     215 H           19.9177     7.5310     9.6433 opls_140      1 RES        0.060000
     216 H           20.9265     8.0829     8.3279 opls_140      1 RES        0.060000
     217 C           14.6243    15.3445    10.3651 opls_135      1 RES       -0.180000
     218 C           13.6531    16.4480    10.7857 opls_157      1 RES        0.145000
     219 O           14.2230    17.6502    11.2525 opls_154      1 RES       -0.683000
     220 H           14.9259    17.8914    10.6688 opls_155      1 RES        0.418000
     221 H           13.0056    15.9795    11.5269 opls_140      1 RES        0.060000
     222 H           12.9788    16.7761     9.9945 opls_140      1 RES        0.060000
     223 H           14.9164    15.6670     9.3657 opls_140      1 RES        0.060000
     224 H           14.1084    14.3892    10.2685 opls_140      1 RES        0.060000
     225 H           15.4885    15.1673    11.0052 opls_140      1 RES        0.060000
     226 C           30.5952    32.9483    16.5417 opls_135      1 RES       -0.180000
     227 C           31.5451    33.5778    15.5222 opls_157      1 RES        0.145000
     228 O           30.9778    33.9969    14.3014 opls_154      1 RES       -0.683000
     229 H           30.1765    34.4608    14.4906 opls_155      1 RES        0.418000
     230 H           32.3320    32.8366    15.3823 opls_140      1 RES        0.060000
     231 H           32.0616    34.4677    15.8820 opls_140      1 RES        0.060000
     232 H           30.1271    33.8254    16.9886 opls_140      1 RES        0.060000
     233 H           31.1517    32.4333    17.3247 opls_140      1 RES        0.060000
     234 H           29.8574    32.2387    16.1672 opls_140      1 RES        0.060000
     235 C            6.0515    26.9373    29.4480 opls_135      1 RES       -0.180000
     236 C            5.1592    28.1538    29.6964 opls_157      1 RES        0.145000
     237 O            4.1932    28.0340    30.7165 opls_154      1 RES       -0.683000
     238 H            4.6047    27.6378    31.4693 opls_155      1 RES        0.418000
     239 H            4.7141    28.3737    28.7260 opls_140      1 RES        0.060000
     240 H            5.7026    29.0597    29.9652 opls_140      1 RES        0.060000
     241 H            6.7901    27.0302    30.2442 opls_140      1 RES        0.060000
     242 H            6.5754    27.0277    28.4965 opls_140      1 RES        0.060000
     243 H            5.5737    25.9576    29.4474 opls_140      1 RES        0.060000
     244 C           31.9038     7.3302    17.0746 opls_135      1 RES       -0.180000
     245 C           30.6868     6.4250    16.8816 opls_157      1 RES        0.145000
     246 O           29.5815     6.9836    16.2074 opls_154      1 RES       -0.683000
     247 H           29.9007     7.4477    15.4486 opls_155      1 RES        0.418000
     248 H           30.4328     6.0845    17.8854 opls_140      1 RES        0.060000
     249 H           30.8921     5.5126    16.3217 opls_140      1 RES        0.060000
     250 H           32.3887     7.2707    16.1002 opls_140      1 RES        0.060000
     251 H           32.5873     6.9100    17.8123 opls_140      1 RES        0.060000
     252 H           31.7182     8.3614    17.3753 opls_140      1 RES        0.060000
     253 C           27.5394     6.6977     9.3231 opls_135      1 RES       -0.180000
     254 C           27.1140     5.3459     9.8970 opls_157      1 RES        0.145000
     255 O           25.7685     4.9705     9.7046 opls_154      1 RES       -0.683000
     256 H           25.5353     5.1527     8.8071 opls_155      1 RES        0.418000
     257 H           27.3853     5.3948    10.9515 opls_140      1 RES        0.060000
     258 H           27.6739     4.4970     9.5045 opls_140      1 RES        0.060000
     259 H           27.6911     6.4606     8.2701 opls_140      1 RES        0.060000
     260 H           28.4991     7.0098     9.7351 opls_140      1 RES        0.060000
     261 H           26.8563     7.5363     9.4580 opls_140      1 RES        0.060000
     262 C           11.1296    10.0546    22.4504 opls_135      1 RES       -0.180000
     263 C           10.5107    10.7775    23.6471 opls_157      1 RES        0.145000
     264 O           10.8848    10.3198    24.9272 opls_154      1 RES       -0.683000
     265 H           11.8212    10.1931    24.9347 opls_155      1 RES        0.418000
     266 H            9.4350    10.7165    23.4817 opls_140      1 RES        0.060000
     267 H           10.7264    11.8453    23.6852 opls_140      1 RES        0.060000
     268 H           12.1173    10.5122    22.3937 opls_140      1 RES        0.060000
     269 H           10.5970    10.2988    21.5312 opls_140      1 RES        0.060000
     270 H           11.1861     8.9670    22.4968 opls_140      1 RES        0.060000
     271 C           17.6113     6.4927     3.8695 opls_135      1 RES       -0.180000
     272 C           18.0826     5.2206     4.5749 opls_157      1 RES        0.145000
     273 O           18.5823     5.3700     5.8849 opls_154      1 RES       -0.683000
     274 H           17.9975     5.9386     6.3622 opls_155      1 RES        0.418000
     275 H           18.8162     4.7837     3.8974 opls_140      1 RES        0.060000
     276 H           17.3124     4.4567     4.6816 opls_140      1 RES        0.060000
     277 H           16.6195     6.6368     4.2983 opls_140      1 RES        0.060000
     278 H           17.4893     6.3213     2.8000 opls_140      1 RES        0.060000
     279 H           18.2331     7.3820     3.9725 opls_140      1 RES        0.060000
     280 C           12.6324    14.4897    13.8892 opls_135      1 RES       -0.180000
     281 C           11.2218    15.0518    14.0677 opls_157      1 RES        0.145000
     282 O           10.7524    15.9187    13.0596 opls_154      1 RES       -0.683000
     283 H           10.9645    15.5398    12.2204 opls_155      1 RES        0.418000
     284 H           11.2341    15.5244    15.0499 opls_140      1 RES        0.060000
     285 H           10.4426    14.2925    14.1339 opls_140      1 RES        0.060000
     286 H           12.4661    13.6776    13.1814 opls_140      1 RES        0.060000
     287 H           12.9963    14.0513    14.8185 opls_140      1 RES        0.060000
     288 H           13.4058    15.1771    13.5465 opls_140      1 RES        0.060000
     289 C           12.9656    20.1063    28.4545 opls_135      1 RES       -0.180000
     290 C           12.4111    21.2961    29.2385 opls_157      1 RES        0.145000
     291 O           11.2115    21.0841    29.9486 opls_154      1 RES       -0.683000
     292 H           11.2786    20.2588    30.4039 opls_155      1 RES        0.418000
     293 H           12.3231    22.0958    28.5030 opls_140      1 RES        0.060000
     294 H           13.0897    21.6881    29.9961 opls_140      1 RES        0.060000
     295 H           13.4576    19.5278    29.2363 opls_140      1 RES        0.060000
     296 H           13.7307    20.4290    27.7484 opls_140      1 RES        0.060000
     297 H           12.2546    19.5046    27.8883 opls_140      1 RES        0.060000
     298 C           15.0025    13.1254     3.0220 opls_135      1 RES       -0.180000
     299 C           13.4839    13.2289     2.8776 opls_157      1 RES        0.145000
     300 O           12.9421    14.5278     2.7923 opls_154      1 RES       -0.683000
     301 H           13.4696    15.0301     2.1902 opls_155      1 RES        0.418000
     302 H           13.0862    12.6672     3.7229 opls_140      1 RES        0.060000
     303 H           13.0831    12.7273     1.9967 opls_140      1 RES        0.060000
     304 H           15.3391    13.2658     1.9949 opls_140      1 RES        0.060000
     305 H           15.2956    12.1229     3.3338 opls_140      1 RES        0.060000
     306 H           15.4886    13.8185     3.7087 opls_140      1 RES        0.060000
     307 C           24.6245    16.8611    27.2745 opls_135      1 RES       -0.180000
     308 C           24.3881    17.0736    25.7789 opls_157      1 RES        0.145000
     309 O           23.0655    16.9140    25.3170 opls_154      1 RES       -0.683000
     310 H           22.4866    17.3617    25.9148 opls_155      1 RES        0.418000
     311 H           25.0846    16.3933    25.2889 opls_140      1 RES        0.060000
     312 H           24.6661    18.0640    25.4184 opls_140      1 RES        0.060000
     313 H           24.2968    17.8122    27.6943 opls_140      1 RES        0.060000
     314 H           25.6878    16.7523    27.4880 opls_140      1 RES        0.060000
     315 H           24.1251    16.0141    27.7450 opls_140      1 RES        0.060000
     316 C           24.2050    15.5821    14.4260 opls_135      1 RES       -0.180000
     317 C           25.2122    16.6861    14.7496 opls_157      1 RES        0.145000
     318 O           25.1366    17.8608    13.9734 opls_154      1 RES       -0.683000
     319 H           24.2281    18.1108    13.9018 opls_155      1 RES        0.418000
     320 H           26.1862    16.2022    14.6777 opls_140      1 RES        0.060000
     321 H           25.1589    17.0540    15.7743 opls_140      1 RES        0.060000
     322 H           23.3084    15.9355    14.9352 opls_140      1 RES        0.060000
     323 H           24.4999    14.6398    14.8877 opls_140      1 RES        0.060000
     324 H           24.0184    15.3672    13.3738 opls_140      1 RES        0.060000
     325 C           12.1264    33.5090    22.7141 opls_135      1 RES       -0.180000
     326 C           13.3204    33.5486    23.6683 opls_157      1 RES        0.145000
     327 O           13.2507    34.4700    24.7333 opls_154      1 RES       -0.683000
     328 H           12.3899    34.4128    25.1189 opls_155      1 RES        0.418000
     329 H           14.1834    33.7209    23.0252 opls_140      1 RES        0.060000
     330 H           13.5280    32.6007    24.1647 opls_140      1 RES        0.060000
     331 H           11.4095    32.9059    23.2712 opls_140      1 RES        0.060000
     332 H           12.3766    32.9688    21.8010 opls_140      1 RES        0.060000
     333 H           11.7018    34.4636    22.4034 opls_140      1 RES        0.060000
     334 C           24.2707    32.5123    17.5122 opls_135      1 RES       -0.180000
     335 C           25.2615    33.6761    17.4713 opls_157      1 RES        0.145000
     336 O           26.5936    33.3631    17.1312 opls_154      1 RES       -0.683000
     337 H           26.5805    32.7791    16.3883 opls_155      1 RES        0.418000
     338 H           25.1818    34.1426    18.4532 opls_140      1 RES        0.060000
     339 H           24.9971    34.4643    16.7663 opls_140      1 RES        0.060000
     340 H           24.0350    32.3766    16.4567 opls_140      1 RES        0.060000
     341 H           23.3524    32.8019    18.0232 opls_140      1 RES        0.060000
     342 H           24.6058    31.5854    17.9776 opls_140      1 RES        0.060000
     343 C           30.8096    14.5100    32.2844 opls_135      1 RES       -0.180000
     344 C           29.6978    13.4736    32.1178 opls_157      1 RES        0.145000
     345 O           29.0083    13.0900    33.2863 opls_154      1 RES       -0.683000
     346 H           28.8031    13.8698    33.7790 opls_155      1 RES        0.418000
     347 H           30.1777    12.6297    31.6222 opls_140      1 RES        0.060000
     348 H           28.9004    13.7780    31.4398 opls_140      1 RES        0.060000
     349 H           30.2466    15.4421    32.3332 opls_140      1 RES        0.060000
     350 H           31.4405    14.5489    31.3964 opls_140      1 RES        0.060000
     351 H           31.4795    14.3933    33.1363 opls_140      1 RES        0.060000
     352 C            5.4750     4.0410     3.0041 opls_135      1 RES       -0.180000
     353 C            6.3636     2.9015     3.5040 opls_157      1 RES        0.145000
     354 O            7.1532     3.1656     4.6419 opls_154      1 RES       -0.683000
     355 H            6.6144     3.6068     5.2807 opls_155      1 RES        0.418000
     356 H            6.9628     2.6175     2.6389 opls_140      1 RES        0.060000
     357 H            5.8201     1.9965     3.7755 opls_140      1 RES        0.060000
     358 H            4.6253     3.9824     3.6843 opls_140      1 RES        0.060000
     359 H            5.1099     3.8359     1.9978 opls_140      1 RES        0.060000
     360 H            5.9092     5.0405     2.9791 opls_140      1 RES        0.060000
     361 C           33.4110    14.2049    10.1725 opls_135      1 RES       -0.180000
     362 C           32.6409    12.8859    10.2437 opls_157      1 RES        0.145000
     363 O           32.2786    12.2960     9.0154 opls_154      1 RES       -0.683000
     364 H           33.0261    12.3304     8.4381 opls_155      1 RES        0.418000
     365 H           31.7767    13.1032    10.8715 opls_140      1 RES        0.060000
     366 H           33.1691    12.0870    10.7641 opls_140      1 RES        0.060000
     367 H           34.4257    13.8652     9.9651 opls_140      1 RES        0.060000
     368 H           33.4188    14.7029    11.1420 opls_140      1 RES        0.060000
     369 H           33.0720    14.9441     9.4466 opls_140      1 RES        0.060000
     370 C           30.1919    28.6540    11.7010 opls_135      1 RES       -0.180000
     371 C           29.1651    29.6774    12.1868 opls_157      1 RES        0.145000
     372 O           28.7848    29.5998    13.5424 opls_154      1 RES       -0.683000
     373 H           29.5654    29.4887    14.0633 opls_155      1 RES        0.418000
     374 H           28.3182    29.5628    11.5102 opls_140      1 RES        0.060000
     375 H           29.4772    30.7151    12.0689 opls_140      1 RES        0.060000
     376 H           31.1285    29.0864    12.0531 opls_140      1 RES        0.060000
     377 H           30.2273    28.6263    10.6119 opls_140      1 RES        0.060000
     378 H           30.0680    27.6235    12.0339 opls_140      1 RES        0.060000
     379 C            5.1193     7.3615     7.9231 opls_135      1 RES       -0.180000
     380 C            6.0891     7.6782     9.0619 opls_157      1 RES        0.145000
     381 O            7.3247     6.9990     9.0499 opls_154      1 RES       -0.683000
     382 H            7.6677     7.0232     8.1696 opls_155      1 RES        0.418000
     383 H            5.5195     7.4888     9.9717 opls_140      1 RES        0.060000
     384 H            6.3760     8.7278     9.1264 opls_140      1 RES        0.060000
     385 H            5.5164     7.9694     7.1101 opls_140      1 RES        0.060000
     386 H            4.1182     7.7265     8.1527 opls_140      1 RES        0.060000
     387 H            5.0099     6.3161     7.6346 opls_140      1 RES        0.060000
     388 C           14.3404    32.3497    15.4918 opls_135      1 RES       -0.180000
     389 C           14.5857    33.8582    15.4470 opls_157      1 RES        0.145000
     390 O           15.0612    34.3874    14.2296 opls_154      1 RES       -0.683000
     391 H           14.5572    34.0095    13.5252 opls_155      1 RES        0.418000
     392 H           15.2634    34.0535    16.2781 opls_140      1 RES        0.060000
     393 H           13.7032    34.4615    15.6596 opls_140      1 RES        0.060000
     394 H           13.3701    32.2621    15.0029 opls_140      1 RES        0.060000
     395 H           14.2269    32.0050    16.5196 opls_140      1 RES        0.060000
     396 H           15.0893    31.7066    15.0297 opls_140      1 RES        0.060000
     397 C            9.5747    21.5886    24.1100 opls_135      1 RES       -0.180000
     398 C            9.4579    22.1515    22.6932 opls_157      1 RES        0.145000
     399 O            8.9608    21.2791    21.7032 opls_154      1 RES       -0.683000
     400 H            8.2067    20.8310    22.0546 opls_155      1 RES        0.418000
     401 H           10.4563    22.5207    22.4586 opls_140      1 RES        0.060000
     402 H            8.8114    23.0252    22.6107 opls_140      1 RES        0.060000
     403 H            8.5487    21.6640    24.4702 opls_140      1 RES        0.060000
     404 H           10.1942    22.2327    24.7340 opls_140      1 RES        0.060000
     405 H            9.9710    20.5788    24.2165 opls_140      1 RES        0.060000
     406 C           18.1402     7.0231    11.9711 opls_135      1 RES       -0.180000
     407 C           18.9605     5.8209    11.5023 opls_157      1 RES        0.145000
     408 O           18.5046     5.1540    10.3467 opls_154      1 RES       -0.683000
     409 H           18.2796     5.8039     9.6987 opls_155      1 RES        0.418000
     410 H           19.0089     5.1632    12.3702 opls_140      1 RES        0.060000
     411 H           20.0001     6.0519    11.2697 opls_140      1 RES        0.060000
     412 H           18.4886     7.8109    11.3032 opls_140      1 RES        0.060000
     413 H           18.4116     7.3056    12.9883 opls_140      1 RES        0.060000
     414 H           17.0547     6.9256    11.9552 opls_140      1 RES        0.060000
     415 C           13.6245    29.7615    25.7476 opls_135      1 RES       -0.180000
     416 C           14.9628    29.1825    25.2877 opls_157      1 RES        0.145000
     417 O           14.9333    28.3343    24.1617 opls_154      1 RES       -0.683000
     418 H           14.3854    28.7342    23.5037 opls_155      1 RES        0.418000
     419 H           15.3686    28.6879    26.1702 opls_140      1 RES        0.060000
     420 H           15.7073    29.9330    25.0219 opls_140      1 RES        0.060000
     421 H           13.4825    30.5879    25.0511 opls_140      1 RES        0.060000
     422 H           13.7071    30.1820    26.7498 opls_140      1 RES        0.060000
     423 H           12.7667    29.0892    25.7629 opls_140      1 RES        0.060000
     424 C           23.3459    24.2099    28.0709 opls_135      1 RES       -0.180000
     425 C           23.1895    25.6875    27.7100 opls_157      1 RES        0.145000
     426 O           23.6734    26.0864    26.4472 opls_154      1 RES       -0.683000
     427 H           23.3896    25.4518    25.8070 opls_155      1 RES        0.418000
     428 H           23.6696    26.2248    28.5279 opls_140      1 RES        0.060000
     429 H           22.1587    26.0417    27.7113 opls_140      1 RES        0.060000
     430 H           22.5106    23.7557    27.5380 opls_140      1 RES        0.060000
     431 H           23.1854    24.0515    29.1373 opls_140      1 RES        0.060000
     432 H           24.2943    23.7322    27.8255 opls_140      1 RES        0.060000
     433 C            9.6726    17.4390    30.2537 opls_135      1 RES       -0.180000
     434 C           11.1309    17.2469    29.8360 opls_157      1 RES        0.145000
     435 O           11.3835    17.1215    28.4545 opls_154      1 RES       -0.683000
     436 H           10.8869    17.7853    28.0009 opls_155      1 RES        0.418000
     437 H           11.4688    16.3782    30.4011 opls_140      1 RES        0.060000
     438 H           11.7946    18.0549    30.1440 opls_140      1 RES        0.060000
     439 H            9.5200    18.5018    30.0659 opls_140      1 RES        0.060000
     440 H            9.5495    17.2695    31.3234 opls_140      1 RES        0.060000
     441 H            8.9235    16.8249    29.7539 opls_140      1 RES        0.060000
     442 C           30.7260    14.1278    17.9923 opls_135      1 RES       -0.180000
     443 C           31.6164    14.2944    19.2241 opls_157      1 RES        0.145000
     444 O           31.0247    14.8867    20.3587 opls_154      1 RES       -0.683000
     445 H           30.1748    14.4946    20.4885 opls_155      1 RES        0.418000
     446 H           32.4816    14.8530    18.8670 opls_140      1 RES        0.060000
     447 H           32.0270    13.3609    19.6089 opls_140      1 RES        0.060000
     448 H           30.1581    13.2314    18.2413 opls_140      1 RES        0.060000
     449 H           31.3238    13.9075    17.1079 opls_140      1 RES        0.060000
     450 H           30.0760    14.9618    17.7277 opls_140      1 RES        0.060000
     451 C           30.0207    25.5341    14.0778 opls_135      1 RES       -0.180000
     452 C           30.2572    26.8762    14.7713 opls_157      1 RES        0.145000
     453 O           30.9944    26.8478    15.9729 opls_154      1 RES       -0.683000
     454 H           31.7447    26.2871    15.8472 opls_155      1 RES        0.418000
     455 H           29.2612    27.2985    14.9044 opls_140      1 RES        0.060000
     456 H           30.7903    27.6065    14.1625 opls_140      1 RES        0.060000
     457 H           30.9690    25.3725    13.5651 opls_140      1 RES        0.060000
     458 H           29.2431    25.6208    13.3189 opls_140      1 RES        0.060000
     459 H           29.7476    24.6868    14.7067 opls_140      1 RES        0.060000
     460 C           10.1007    24.9647    12.1990 opls_135      1 RES       -0.180000
     461 C           10.7454    25.4762    13.4876 opls_157      1 RES        0.145000
     462 O           12.1497    25.3840    13.5740 opls_154      1 RES       -0.683000
     463 H           12.5174    25.6845    12.7569 opls_155      1 RES        0.418000
     464 H           10.2430    24.9288    14.2851 opls_140      1 RES        0.060000
     465 H           10.5454    26.5261    13.7017 opls_140      1 RES        0.060000
     466 H           10.2599    25.8003    11.5174 opls_140      1 RES        0.060000
     467 H            9.0254    24.8395    12.3259 opls_140      1 RES        0.060000
     468 H           10.4762    24.0270    11.7892 opls_140      1 RES        0.060000
     469 C           19.1501    33.4959    13.5505 opls_135      1 RES       -0.180000
     470 C           17.7205    32.9798    13.3840 opls_157      1 RES        0.145000
     471 O           17.0994    32.4507    14.5340 opls_154      1 RES       -0.683000
     472 H           17.2673    33.0353    15.2572 opls_155      1 RES        0.418000
     473 H           17.7805    32.2543    12.5728 opls_140      1 RES        0.060000
     474 H           17.0117    33.7305    13.0343 opls_140      1 RES        0.060000
     475 H           18.9873    34.4794    13.9913 opls_140      1 RES        0.060000
     476 H           19.6260    33.6410    12.5807 opls_140      1 RES        0.060000
     477 H           19.8348    32.8910    14.1449 opls_140      1 RES        0.060000
     478 C           24.7574    27.3837    12.5845 opls_135      1 RES       -0.180000
     479 C           23.7177    28.4398    12.2083 opls_157      1 RES        0.145000
     480 O           23.1722    29.1972    13.2652 opls_154      1 RES       -0.683000
     481 H           23.8786    29.4675    13.8316 opls_155      1 RES        0.418000
     482 H           22.9560    27.8930    11.6523 opls_140      1 RES        0.060000
     483 H           24.0803    29.1968    11.5130 opls_140      1 RES        0.060000
     484 H           25.6594    27.9841    12.7026 opls_140      1 RES        0.060000
     485 H           24.9244    26.6918    11.7589 opls_140      1 RES        0.060000
     486 H           24.5555    26.7735    13.4648 opls_140      1 RES        0.060000
     487 C            6.2642    15.1414    16.4014 opls_135      1 RES       -0.180000
     488 C            5.9438    16.6355    16.4525 opls_157      1 RES        0.145000
     489 O            5.9128    17.3199    15.2201 opls_154      1 RES       -0.683000
     490 H            5.4293    16.7942    14.6012 opls_155      1 RES        0.418000
     491 H            6.6782    17.0530    17.1415 opls_140      1 RES        0.060000
     492 H            4.9778    16.8709    16.8990 opls_140      1 RES        0.060000
     493 H            5.3037    14.7121    16.1162 opls_140      1 RES        0.060000
     494 H            6.5157    14.7640    17.3926 opls_140      1 RES        0.060000
     495 H            7.0666    14.8237    15.7356 opls_140      1 RES        0.060000
     496 C           18.9261     8.5441    26.0365 opls_135      1 RES       -0.180000
     497 C           19.7569     7.4432    26.6968 opls_157      1 RES        0.145000
     498 O           19.1361     6.1867    26.8512 opls_154      1 RES       -0.683000
     499 H           18.6968     5.9717    26.0426 opls_155      1 RES        0.418000
     500 H           20.0754     7.8693    27.6481 opls_140      1 RES        0.060000
     501 H           20.6834     7.2071    26.1733 opls_140      1 RES        0.060000
     502 H           19.0209     8.2976    24.9790 opls_140      1 RES        0.060000
     503 H           19.3828     9.5215    26.1922 opls_140      1 RES        0.060000
     504 H           17.8839     8.6362    26.3420 opls_140      1 RES        0.060000
     505 C           16.6537     2.9578    17.0341 opls_135      1 RES       -0.180000
     506 C           18.0707     3.5179    16.9064 opls_157      1 RES        0.145000
     507 O           19.0995     2.5881    16.6516 opls_154      1 RES       -0.683000
     508 H           18.8046     1.9977    15.9752 opls_155      1 RES        0.418000
     509 H           18.2327     4.0747    17.8293 opls_140      1 RES        0.060000
     510 H           18.1906     4.2547    16.1121 opls_140      1 RES        0.060000
     511 H           16.3646     2.8297    15.9910 opls_140      1 RES        0.060000
     512 H           15.9833     3.6946    17.4767 opls_140      1 RES        0.060000
     513 H           16.5280     2.0396    17.6078 opls_140      1 RES        0.060000
     514 C           30.1245    14.7287    12.5805 opls_135      1 RES       -0.180000
     515 C           30.5092    13.6798    13.6244 opls_157      1 RES        0.145000
     516 O           31.6277    12.8732    13.3305 opls_154      1 RES       -0.683000
     517 H           32.3168    13.4302    13.0020 opls_155      1 RES        0.418000
     518 H           29.6025    13.0942    13.7759 opls_140      1 RES        0.060000
     519 H           30.7426    14.0908    14.6067 opls_140      1 RES        0.060000
     520 H           30.8347    15.5288    12.7892 opls_140      1 RES        0.060000
     521 H           29.1231    15.1155    12.7694 opls_140      1 RES        0.060000
     522 H           30.1479    14.4255    11.5338 opls_140      1 RES        0.060000
     523 C           21.5091    21.2897     2.5142 opls_135      1 RES       -0.180000
     524 C           21.6962    21.3506     4.0305 opls_157      1 RES        0.145000
     525 O           20.5318    21.2399     4.8180 opls_154      1 RES       -0.683000
     526 H           20.0077    20.5326     4.4744 opls_155      1 RES        0.418000
     527 H           22.2299    22.2845     4.2066 opls_140      1 RES        0.060000
     528 H           22.3499    20.5763     4.4321 opls_140      1 RES        0.060000
     529 H           21.4173    20.2178     2.3389 opls_140      1 RES        0.060000
     530 H           22.4049    21.6353     1.9983 opls_140      1 RES        0.060000
     531 H           20.6728    21.8454     2.0901 opls_140      1 RES        0.060000
     532 C           29.3097    22.9774    27.8473 opls_135      1 RES       -0.180000
     533 C           29.2321    24.4068    27.3101 opls_157      1 RES        0.145000
     534 O           28.7754    24.5624    25.9852 opls_154      1 RES       -0.683000
     535 H           28.0152    24.0135    25.8673 opls_155      1 RES        0.418000
     536 H           30.2335    24.8121    27.4550 opls_140      1 RES        0.060000
     537 H           28.5796    25.0654    27.8834 opls_140      1 RES        0.060000
     538 H           28.2721    22.7782    28.1154 opls_140      1 RES        0.060000
     539 H           29.9026    22.9376    28.7611 opls_140      1 RES        0.060000
     540 H           29.7128    22.2137    27.1822 opls_140      1 RES        0.060000
     541 C           30.2768    12.9569    23.6300 opls_135      1 RES       -0.180000
     542 C           30.4273    14.0831    24.6531 opls_157      1 RES        0.145000
     543 O           30.7609    13.7035    25.9695 opls_154      1 RES       -0.683000
     544 H           31.4535    13.0621    25.9265 opls_155      1 RES        0.418000
     545 H           29.4856    14.6297    24.6040 opls_140      1 RES        0.060000
     546 H           31.1901    14.8192    24.3992 opls_140      1 RES        0.060000
     547 H           31.3142    12.7433    23.3721 opls_140      1 RES        0.060000
     548 H           29.7773    13.3143    22.7295 opls_140      1 RES        0.060000
     549 H           29.7426    12.0610    23.9464 opls_140      1 RES        0.060000
     550 C            8.0704    16.5183    13.5633 opls_135      1 RES       -0.180000
     551 C            8.9031    16.8108    14.8118 opls_157      1 RES        0.145000
     552 O           10.1688    17.3974    14.6067 opls_154      1 RES       -0.683000
     553 H           10.0736    18.0950    13.9764 opls_155      1 RES        0.418000
     554 H            8.9671    15.8553    15.3323 opls_140      1 RES        0.060000
     555 H            8.4227    17.4834    15.5225 opls_140      1 RES        0.060000
     556 H            7.6489    17.4975    13.3360 opls_140      1 RES        0.060000
     557 H            7.2440    15.8467    13.7962 opls_140      1 RES        0.060000
     558 H            8.5878    16.0881    12.7058 opls_140      1 RES        0.060000
     559 C            9.6516    33.4151    30.3792 opls_135      1 RES       -0.180000
     560 C           10.1527    32.4818    31.4818 opls_157      1 RES        0.145000
     561 O           10.1165    32.9808    32.8000 opls_154      1 RES       -0.683000
     562 H            9.2809    33.4011    32.9350 opls_155      1 RES        0.418000
     563 H           11.1590    32.2011    31.1710 opls_140      1 RES        0.060000
     564 H            9.6096    31.5392    31.5511 opls_140      1 RES        0.060000
     565 H            8.5704    33.3017    30.4589 opls_140      1 RES        0.060000
     566 H            9.9523    33.0519    29.3965 opls_140      1 RES        0.060000
     567 H            9.9568    34.4602    30.4307 opls_140      1 RES        0.060000
     568 C           25.6561     5.6393    16.5971 opls_135      1 RES       -0.180000
     569 C           25.5905     6.3280    15.2335 opls_157      1 RES        0.145000
     570 O           25.3154     5.5067    14.1209 opls_154      1 RES       -0.683000
     571 H           24.6039     4.9279    14.3484 opls_155      1 RES        0.418000
     572 H           26.5434     6.8490    15.1402 opls_140      1 RES        0.060000
     573 H           24.8365     7.1120    15.1641 opls_140      1 RES        0.060000
     574 H           24.6012     5.5396    16.8528 opls_140      1 RES        0.060000
     575 H           26.1179     6.2905    17.3393 opls_140      1 RES        0.060000
     576 H           26.1808     4.6855    16.6516 opls_140      1 RES        0.060000
     577 C           31.4606    10.2847     4.1585 opls_135      1 RES       -0.180000
     578 C           31.4990     9.8901     2.6818 opls_157      1 RES        0.145000
     579 O           30.3574     9.2402     2.1693 opls_154      1 RES       -0.683000
     580 H           29.5914     9.7020     2.4744 opls_155      1 RES        0.418000
     581 H           32.4015     9.2875     2.5794 opls_140      1 RES        0.060000
     582 H           31.6439    10.7270     1.9987 opls_140      1 RES        0.060000
     583 H           30.8727    11.2022     4.1339 opls_140      1 RES        0.060000
     584 H           32.4576    10.5384     4.5187 opls_140      1 RES        0.060000
     585 H           31.0526     9.5576     4.8607 opls_140      1 RES        0.060000
     586 C           14.7350    11.0039    30.7761 opls_135      1 RES       -0.180000
     587 C           13.3547    11.5518    30.4120 opls_157      1 RES        0.145000
     588 O           12.7156    10.9706    29.2976 opls_154      1 RES       -0.683000
     589 H           12.8063    10.0321    29.3599 opls_155      1 RES        0.418000
     590 H           13.5053    12.6247    30.2922 opls_140      1 RES        0.060000
     591 H           12.6138    11.4616    31.2063 opls_140      1 RES        0.060000
     592 H           14.4825    10.0923    31.3177 opls_140      1 RES        0.060000
     593 H           15.2472    11.6712    31.4692 opls_140      1 RES        0.060000
     594 H           15.4297    10.8130    29.9582 opls_140      1 RES        0.060000
     595 C            3.3650    24.9726    30.4778 opls_135      1 RES       -0.180000
     596 C            3.0382    25.6112    29.1276 opls_157      1 RES        0.145000
     597 O            3.4284    24.8960    27.9768 opls_154      1 RES       -0.683000
     598 H            3.1897    23.9894    28.0962 opls_155      1 RES        0.418000
     599 H            3.4889    26.6026    29.1737 opls_140      1 RES        0.060000
     600 H            1.9762    25.7955    28.9652 opls_140      1 RES        0.060000
     601 H            2.5632    24.2418    30.5841 opls_140      1 RES        0.060000
     602 H            3.2629    25.6977    31.2853 opls_140      1 RES        0.060000
     603 H            4.3490    24.5177    30.5916 opls_140      1 RES        0.060000
     604 C           21.2325    14.1555     5.5556 opls_135      1 RES       -0.180000
     605 C           20.2888    13.6075     6.6265 opls_157      1 RES        0.145000
     606 O           20.7167    13.7180     7.9655 opls_154      1 RES       -0.683000
     607 H           21.0609    14.5884     8.0958 opls_155      1 RES        0.418000
     608 H           20.1061    12.5740     6.3323 opls_140      1 RES        0.060000
     609 H           19.3032    14.0730     6.6348 opls_140      1 RES        0.060000
     610 H           21.0284    15.2254     5.5980 opls_140      1 RES        0.060000
     611 H           20.9444    13.8011     4.5659 opls_140      1 RES        0.060000
     612 H           22.2950    13.9384     5.6659 opls_140      1 RES        0.060000
     613 C           30.2705     4.5094    26.2379 opls_135      1 RES       -0.180000
     614 C           30.6750     4.4969    27.7124 opls_157      1 RES        0.145000
     615 O           29.8829     3.7178    28.5806 opls_154      1 RES       -0.683000
     616 H           29.7244     2.8826    28.1679 opls_155      1 RES        0.418000
     617 H           30.6992     5.5474    28.0020 opls_140      1 RES        0.060000
     618 H           31.6864     4.1341    27.8957 opls_140      1 RES        0.060000
     619 H           30.6902     3.5699    25.8786 opls_140      1 RES        0.060000
     620 H           30.7674     5.3205    25.7057 opls_140      1 RES        0.060000
     621 H           29.2078     4.5945    26.0109 opls_140      1 RES        0.060000
     622 C           18.4631     5.0576    31.4935 opls_135      1 RES       -0.180000
     623 C           18.4396     3.6709    30.8498 opls_157      1 RES        0.145000
     624 O           17.8558     2.6319    31.6033 opls_154      1 RES       -0.683000
     625 H           17.0468     2.9518    31.9723 opls_155      1 RES        0.418000
     626 H           19.4794     3.4661    30.5950 opls_140      1 RES        0.060000
     627 H           17.9064     3.6275    29.9001 opls_140      1 RES        0.060000
     628 H           17.4483     5.4109    31.3106 opls_140      1 RES        0.060000
     629 H           19.1465     5.7206    30.9629 opls_140      1 RES        0.060000
     630 H           18.7310     5.1155    32.5485 opls_140      1 RES        0.060000
     631 C           22.4184     4.8043    30.2843 opls_135      1 RES       -0.180000
     632 C           23.1418     4.9252    31.6260 opls_157      1 RES        0.145000
     633 O           22.9330     6.1146    32.3540 opls_154      1 RES       -0.683000
     634 H           22.0089     6.3118    32.3409 opls_155      1 RES        0.418000
     635 H           24.1931     4.7615    31.3896 opls_140      1 RES        0.060000
     636 H           22.8919     4.1415    32.3412 opls_140      1 RES        0.060000
     637 H           21.4142     4.5131    30.5925 opls_140      1 RES        0.060000
     638 H           22.8335     3.9894    29.6914 opls_140      1 RES        0.060000
     639 H           22.4083     5.6833    29.6399 opls_140      1 RES        0.060000
     640 C            2.9304    13.1665    23.9401 opls_135      1 RES       -0.180000
     641 C            2.8473    14.5765    23.3545 opls_157      1 RES        0.145000
     642 O            1.9992    15.4886    24.0155 opls_154      1 RES       -0.683000
     643 H            2.1508    15.4141    24.9453 opls_155      1 RES        0.418000
     644 H            2.5658    14.4275    22.3121 opls_140      1 RES        0.060000
     645 H            3.8022    15.1006    23.3129 opls_140      1 RES        0.060000
     646 H            3.6231    13.3051    24.7702 opls_140      1 RES        0.060000
     647 H            3.3931    12.4787    23.2323 opls_140      1 RES        0.060000
     648 H            1.9980    12.7016    24.2604 opls_140      1 RES        0.060000
     649 C           27.6689    30.2529     2.8995 opls_135      1 RES       -0.180000
     650 C           28.7147    31.1663     3.5397 opls_157      1 RES        0.145000
     651 O           28.2522    32.0742     4.5143 opls_154      1 RES       -0.683000
     652 H           27.6664    31.6130     5.0949 opls_155      1 RES        0.418000
     653 H           29.1963    31.6673     2.7000 opls_140      1 RES        0.060000
     654 H           29.5208    30.6364     4.0473 opls_140      1 RES        0.060000
     655 H           27.5504    29.4771     3.6559 opls_140      1 RES        0.060000
     656 H           28.0636    29.7819     1.9993 opls_140      1 RES        0.060000
     657 H           26.7148    30.7013     2.6224 opls_140      1 RES        0.060000
     658 C            9.3962    20.0893    11.9121 opls_135      1 RES       -0.180000
     659 C           10.1049    18.8288    11.4154 opls_157      1 RES        0.145000
     660 O           11.4855    18.7299    11.6843 opls_154      1 RES       -0.683000
     661 H           11.6313    18.9830    12.5831 opls_155      1 RES        0.418000
     662 H            9.8853    18.7897    10.3484 opls_140      1 RES        0.060000
     663 H            9.6999    17.9000    11.8172 opls_140      1 RES        0.060000
     664 H            9.2379    19.8612    12.9661 opls_140      1 RES        0.060000
     665 H            8.4173    20.1944    11.4442 opls_140      1 RES        0.060000
     666 H            9.9102    21.0404    11.7735 opls_140      1 RES        0.060000
     667 C           25.6748    32.9252    26.9673 opls_135      1 RES       -0.180000
     668 C           27.0326    32.2521    26.7649 opls_157      1 RES        0.145000
     669 O           27.8235    32.0609    27.9164 opls_154      1 RES       -0.683000
     670 H           27.2700    31.7217    28.6032 opls_155      1 RES        0.418000
     671 H           27.5341    32.8607    26.0124 opls_140      1 RES        0.060000
     672 H           26.9771    31.2560    26.3257 opls_140      1 RES        0.060000
     673 H           25.0621    32.0985    27.3269 opls_140      1 RES        0.060000
     674 H           25.2599    33.2568    26.0154 opls_140      1 RES        0.060000
     675 H           25.6363    33.7833    27.6384 opls_140      1 RES        0.060000
     676 C           18.3735    26.4962     5.4225 opls_135      1 RES       -0.180000
     677 C           18.4204    27.9574     4.9747 opls_157      1 RES        0.145000
     678 O           19.1909    28.2452     3.8295 opls_154      1 RES       -0.683000
     679 H           18.9964    27.5964     3.1705 opls_155      1 RES        0.418000
     680 H           18.7606    28.5056     5.8532 opls_140      1 RES        0.060000
     681 H           17.4456    28.3849     4.7399 opls_140      1 RES        0.060000
     682 H           17.6342    26.0732     4.7423 opls_140      1 RES        0.060000
     683 H           17.9794    26.4129     6.4353 opls_140      1 RES        0.060000
     684 H           19.3092    25.9373     5.4066 opls_140      1 RES        0.060000
     685 C           33.8376    19.7060    14.0635 opls_135      1 RES       -0.180000
     686 C           33.4041    21.1502    14.3167 opls_157      1 RES        0.145000
     687 O           32.8571    21.8494    13.2212 opls_154      1 RES       -0.683000
     688 H           32.2395    21.2819    12.7858 opls_155      1 RES        0.418000
     689 H           34.2906    21.6388    14.7210 opls_140      1 RES        0.060000
     690 H           32.6469    21.2605    15.0930 opls_140      1 RES        0.060000
     691 H           32.8893    19.1711    14.1157 opls_140      1 RES        0.060000
     692 H           34.4693    19.3424    14.8740 opls_140      1 RES        0.060000
     693 H           34.3721    19.4988    13.1365 opls_140      1 RES        0.060000
     694 C           29.4750    32.6745    24.3922 opls_135      1 RES       -0.180000
     695 C           29.6365    31.3776    25.1857 opls_157      1 RES        0.145000
     696 O           30.9558    30.9603    25.4569 opls_154      1 RES       -0.683000
     697 H           31.4501    31.7109    25.7488 opls_155      1 RES        0.418000
     698 H           29.0735    30.6349    24.6204 opls_140      1 RES        0.060000
     699 H           29.1671    31.3935    26.1693 opls_140      1 RES        0.060000
     700 H           29.6229    33.4322    25.1617 opls_140      1 RES        0.060000
     701 H           28.4566    32.7761    24.0171 opls_140      1 RES        0.060000
     702 H           30.1365    32.8253    23.5391 opls_140      1 RES        0.060000
     703 C            2.9899    20.0361    30.2070 opls_135      1 RES       -0.180000
     704 C            3.0995    21.5061    30.6128 opls_157      1 RES        0.145000
     705 O            4.1985    21.8604    31.4220 opls_154      1 RES       -0.683000
     706 H            4.9724    21.4503    31.0670 opls_155      1 RES        0.418000
     707 H            2.1443    21.7350    31.0854 opls_140      1 RES        0.060000
     708 H            3.1677    22.1981    29.7733 opls_140      1 RES        0.060000
     709 H            3.6979    19.9746    29.3805 opls_140      1 RES        0.060000
     710 H            1.9982    19.8150    29.8123 opls_140      1 RES        0.060000
     711 H            3.1925    19.2884    30.9739 opls_140      1 RES        0.060000
     712 C           13.3375    22.4575    18.9564 opls_135      1 RES       -0.180000
     713 C           12.6664    21.9875    20.2473 opls_157      1 RES        0.145000
     714 O           13.5196    21.5989    21.3004 opls_154      1 RES       -0.683000
     715 H           14.2060    22.2436    21.3791 opls_155      1 RES        0.418000
     716 H           11.9982    21.1847    19.9358 opls_140      1 RES        0.060000
     717 H           12.0143    22.7294    20.7083 opls_140      1 RES        0.060000
     718 H           13.6067    23.4851    19.2007 opls_140      1 RES        0.060000
     719 H           12.6215    22.4877    18.1351 opls_140      1 RES        0.060000
     720 H           14.1942    21.8853    18.6003 opls_140      1 RES        0.060000
     721 C            2.7201    18.8185    23.3279 opls_135      1 RES       -0.180000
     722 C            2.7887    19.7188    22.0940 opls_157      1 RES        0.145000
     723 O            2.7236    21.1092    22.3191 opls_154      1 RES       -0.683000
     724 H            3.2958    21.3197    23.0411 opls_155      1 RES        0.418000
     725 H            1.9860    19.3643    21.4473 opls_140      1 RES        0.060000
     726 H            3.6963    19.5987    21.5024 opls_140      1 RES        0.060000
     727 H            3.7421    18.8685    23.7034 opls_140      1 RES        0.060000
     728 H            2.5205    17.7852    23.0441 opls_140      1 RES        0.060000
     729 H            1.9905    19.0760    24.0957 opls_140      1 RES        0.060000
     730 C           18.7463    10.0789     8.1759 opls_135      1 RES       -0.180000
     731 C           18.7448     9.0199     7.0731 opls_157      1 RES        0.145000
     732 O           19.6926     9.1776     6.0412 opls_154      1 RES       -0.683000
     733 H           20.5249     9.3930     6.4335 opls_155      1 RES        0.418000
     734 H           17.7209     9.0106     6.6993 opls_140      1 RES        0.060000
     735 H           18.9209     8.0044     7.4278 opls_140      1 RES        0.060000
     736 H           19.5760     9.7532     8.8033 opls_140      1 RES        0.060000
     737 H           17.8357    10.0202     8.7721 opls_140      1 RES        0.060000
     738 H           18.8506    11.1200     7.8703 opls_140      1 RES        0.060000
     739 C           26.7845    16.0052    29.9022 opls_135      1 RES       -0.180000
     740 C           28.2212    16.0121    29.3789 opls_157      1 RES        0.145000
     741 O           28.3953    16.2924    28.0080 opls_154      1 RES       -0.683000
     742 H           27.8496    17.0308    27.7848 opls_155      1 RES        0.418000
     743 H           28.6225    15.0379    29.6583 opls_140      1 RES        0.060000
     744 H           28.8732    16.7335    29.8712 opls_140      1 RES        0.060000
     745 H           26.5837    17.0688    30.0302 opls_140      1 RES        0.060000
     746 H           26.7313    15.5362    30.8847 opls_140      1 RES        0.060000
     747 H           26.0291    15.5190    29.2849 opls_140      1 RES        0.060000
     748 C           14.7752    15.7056    24.7768 opls_135      1 RES       -0.180000
     749 C           15.5664    16.8389    25.4306 opls_157      1 RES        0.145000
     750 O           16.7103    17.2928    24.7423 opls_154      1 RES       -0.683000
     751 H           16.4873    17.3910    23.8293 opls_155      1 RES        0.418000
     752 H           15.8007    16.4725    26.4301 opls_140      1 RES        0.060000
     753 H           14.9904    17.7494    25.5957 opls_140      1 RES        0.060000
     754 H           14.1896    16.2391    24.0281 opls_140      1 RES        0.060000
     755 H           14.0792    15.2582    25.4864 opls_140      1 RES        0.060000
     756 H           15.3441    14.8846    24.3404 opls_140      1 RES        0.060000
     757 C            9.4291    15.5191     6.7131 opls_135      1 RES       -0.180000
     758 C           10.4024    16.5270     6.1009 opls_157      1 RES        0.145000
     759 O           11.2282    16.0583     5.0585 opls_154      1 RES       -0.683000
     760 H           10.6959    15.5536     4.4628 opls_155      1 RES        0.418000
     761 H           10.9757    16.9073     6.9464 opls_140      1 RES        0.060000
     762 H            9.9237    17.4067     5.6708 opls_140      1 RES        0.060000
     763 H            8.6167    15.5168     5.9865 opls_140      1 RES        0.060000
     764 H            9.0296    15.8892     7.6573 opls_140      1 RES        0.060000
     765 H            9.8050    14.5146     6.9076 opls_140      1 RES        0.060000
     766 C           21.9382    16.8775    29.1815 opls_135      1 RES       -0.180000
     767 C           23.1360    16.6200    30.0963 opls_157      1 RES        0.145000
     768 O           22.8856    16.6196    31.4839 opls_154      1 RES       -0.683000
     769 H           22.1025    16.1154    31.6436 opls_155      1 RES        0.418000
     770 H           23.8719    17.3702    29.8068 opls_140      1 RES        0.060000
     771 H           23.6313    15.6640    29.9264 opls_140      1 RES        0.060000
     772 H           21.4559    15.9003    29.1573 opls_140      1 RES        0.060000
     773 H           22.2662    17.1114    28.1687 opls_140      1 RES        0.060000
     774 H           21.2456    17.6668    29.4736 opls_140      1 RES        0.060000
     775 C           11.8671    22.5972    14.7648 opls_135      1 RES       -0.180000
     776 C           10.7443    21.6457    15.1793 opls_157      1 RES        0.145000
     777 O           11.0958    20.5885    16.0436 opls_154      1 RES       -0.683000
     778 H           11.6440    20.9367    16.7301 opls_155      1 RES        0.418000
     779 H           10.3205    21.2911    14.2398 opls_140      1 RES        0.060000
     780 H            9.9144    22.1302    15.6938 opls_140      1 RES        0.060000
     781 H           11.9444    23.2505    15.6338 opls_140      1 RES        0.060000
     782 H           11.5638    23.2088    13.9150 opls_140      1 RES        0.060000
     783 H           12.8273    22.1539    14.5012 opls_140      1 RES        0.060000
     784 C           14.5565    29.0044    18.9457 opls_135      1 RES       -0.180000
     785 C           15.4098    28.0249    19.7520 opls_157      1 RES        0.145000
     786 O           15.1256    27.9212    21.1292 opls_154      1 RES       -0.683000
     787 H           14.1881    27.8677    21.2352 opls_155      1 RES        0.418000
     788 H           16.4383    28.3317    19.5617 opls_140      1 RES        0.060000
     789 H           15.3577    26.9936    19.4028 opls_140      1 RES        0.060000
     790 H           13.6461    28.4288    18.7781 opls_140      1 RES        0.060000
     791 H           15.0076    29.2034    17.9736 opls_140      1 RES        0.060000
     792 H           14.3482    29.9750    19.3957 opls_140      1 RES        0.060000
     793 C           33.5407     4.3000    17.7873 opls_135      1 RES       -0.180000
     794 C           33.7802     4.8243    19.2035 opls_157      1 RES        0.145000
     795 O           32.6370     5.1651    19.9553 opls_154      1 RES       -0.683000
     796 H           31.9975     4.4774    19.8505 opls_155      1 RES        0.418000
     797 H           34.4601     5.6666    19.0758 opls_140      1 RES        0.060000
     798 H           34.3147     4.1309    19.8528 opls_140      1 RES        0.060000
     799 H           33.2750     3.2591    17.9718 opls_140      1 RES        0.060000
     800 H           34.4641     4.3098    17.2082 opls_140      1 RES        0.060000
     801 H           32.7906     4.8115    17.1842 opls_140      1 RES        0.060000
     802 C           33.5821    17.2200    27.8121 opls_135      1 RES       -0.180000
     803 C           33.8632    18.4619    26.9656 opls_157      1 RES        0.145000
     804 O           34.4612    18.2490    25.7065 opls_154      1 RES       -0.683000
     805 H           34.0169    17.5292    25.2852 opls_155      1 RES        0.418000
     806 H           34.4648    19.1048    27.6082 opls_140      1 RES        0.060000
     807 H           32.9780    19.0529    26.7305 opls_140      1 RES        0.060000
     808 H           32.6598    16.8456    27.3678 opls_140      1 RES        0.060000
     809 H           33.3661    17.4946    28.8446 opls_140      1 RES        0.060000
     810 H           34.3566    16.4541    27.8501 opls_140      1 RES        0.060000
     811 C            3.9952    23.5747     4.1351 opls_135      1 RES       -0.180000
     812 C            3.1391    23.3362     2.8909 opls_157      1 RES        0.145000
     813 O            2.8297    24.4672     2.1077 opls_154      1 RES       -0.683000
     814 H            3.6176    24.9777     1.9999 opls_155      1 RES        0.418000
     815 H            2.2475    22.8302     3.2609 opls_140      1 RES        0.060000
     816 H            3.5761    22.6415     2.1736 opls_140      1 RES        0.060000
     817 H            4.9985    23.6345     3.7131 opls_140      1 RES        0.060000
     818 H            3.9648    22.7108     4.7989 opls_140      1 RES        0.060000
     819 H            3.7578    24.4449     4.7470 opls_140      1 RES        0.060000
     820 C           17.0994    32.1724     9.4353 opls_135      1 RES       -0.180000
     821 C           17.7986    30.9481     8.8436 opls_157      1 RES        0.145000
     822 O           17.4537    29.6950     9.3903 opls_154      1 RES       -0.683000
     823 H           16.5133    29.6575     9.4756 opls_155      1 RES        0.418000
     824 H           18.8628    31.1642     8.9381 opls_140      1 RES        0.060000
     825 H           17.6358    30.8131     7.7744 opls_140      1 RES        0.060000
     826 H           16.1332    32.1486     8.9313 opls_140      1 RES        0.060000
     827 H           17.6065    33.0905     9.1385 opls_140      1 RES        0.060000
     828 H           16.9929    32.2131    10.5193 opls_140      1 RES        0.060000
     829 C           11.8149    14.4095    18.9194 opls_135      1 RES       -0.180000
     830 C           11.6427    14.7202    17.4323 opls_157      1 RES        0.145000
     831 O           10.4318    14.3130    16.8355 opls_154      1 RES       -0.683000
     832 H            9.7223    14.5508    17.4126 opls_155      1 RES        0.418000
     833 H           12.5135    14.2727    16.9531 opls_140      1 RES        0.060000
     834 H           11.7039    15.7804    17.1867 opls_140      1 RES        0.060000
     835 H           11.2426    15.2107    19.3872 opls_140      1 RES        0.060000
     836 H           12.8557    14.5241    19.2221 opls_140      1 RES        0.060000
     837 H           11.4974    13.4259    19.2656 opls_140      1 RES        0.060000
     838 C           27.7600    27.0679     7.0170 opls_135      1 RES       -0.180000
     839 C           27.5050    27.9744     5.8125 opls_157      1 RES        0.145000
     840 O           27.5625    27.3695     4.5401 opls_154      1 RES       -0.683000
     841 H           27.0855    26.5546     4.5775 opls_155      1 RES        0.418000
     842 H           28.2242    28.7865     5.9197 opls_140      1 RES        0.060000
     843 H           26.5306    28.4629     5.8185 opls_140      1 RES        0.060000
     844 H           26.7957    26.5746     7.1391 opls_140      1 RES        0.060000
     845 H           27.9476    27.6577     7.9142 opls_140      1 RES        0.060000
     846 H           28.5777    26.3512     6.9402 opls_140      1 RES        0.060000
     847 C           15.6243    31.0224     5.9277 opls_135      1 RES       -0.180000
     848 C           14.7345    32.0749     5.2655 opls_157      1 RES        0.145000
     849 O           14.9173    32.2804     3.8826 opls_154      1 RES       -0.683000
     850 H           14.9752    31.4359     3.4625 opls_155      1 RES        0.418000
     851 H           14.8998    32.9824     5.8461 opls_140      1 RES        0.060000
     852 H           13.6662    31.8779     5.3548 opls_140      1 RES        0.060000
     853 H           15.1181    30.0950     5.6597 opls_140      1 RES        0.060000
     854 H           15.5941    31.1158     7.0133 opls_140      1 RES        0.060000
     855 H           16.6773    31.0082     5.6466 opls_140      1 RES        0.060000
     856 C            6.5263    31.4884    22.3088 opls_135      1 RES       -0.180000
     857 C            5.6749    32.7584    22.2953 opls_157      1 RES        0.145000
     858 O            5.0660    33.1265    23.5126 opls_154      1 RES       -0.683000
     859 H            5.7068    33.0420    24.2020 opls_155      1 RES        0.418000
     860 H            4.9482    32.5963    21.4993 opls_140      1 RES        0.060000
     861 H            6.2164    33.6569    21.9993 opls_140      1 RES        0.060000
     862 H            7.4613    31.8457    22.7404 opls_140      1 RES        0.060000
     863 H            6.7363    31.1508    21.2939 opls_140      1 RES        0.060000
     864 H            6.1318    30.6267    22.8472 opls_140      1 RES        0.060000
     865 C            3.0210    32.2982    13.6191 opls_135      1 RES       -0.180000
     866 C            2.9029    33.7835    13.2759 opls_157      1 RES        0.145000
     867 O            2.8996    34.1196    11.9066 opls_154      1 RES       -0.683000
     868 H            2.3205    33.5238    11.4565 opls_155      1 RES        0.418000
     869 H            3.7196    34.2591    13.8189 opls_140      1 RES        0.060000
     870 H            2.0000    34.2604    13.6574 opls_140      1 RES        0.060000
     871 H            1.9992    31.9485    13.4717 opls_140      1 RES        0.060000
     872 H            3.2706    32.1614    14.6713 opls_140      1 RES        0.060000
     873 H            3.7398    31.7085    13.0503 opls_140      1 RES        0.060000
     874 C           19.8474    16.8930    33.7288 opls_135      1 RES       -0.180000
     875 C           19.1364    18.2419    33.6153 opls_157      1 RES        0.145000
     876 O           18.2942    18.4228    32.4990 opls_154      1 RES       -0.683000
     877 H           17.7669    17.6453    32.3964 opls_155      1 RES        0.418000
     878 H           19.9363    18.9811    33.6567 opls_140      1 RES        0.060000
     879 H           18.4924    18.4807    34.4616 opls_140      1 RES        0.060000
     880 H           19.0634    16.2561    34.1385 opls_140      1 RES        0.060000
     881 H           20.6541    16.9395    34.4603 opls_140      1 RES        0.060000
     882 H           20.2776    16.4756    32.8184 opls_140      1 RES        0.060000
     883 C           13.6094    28.6478    29.7557 opls_135      1 RES       -0.180000
     884 C           12.5238    29.7048    29.5511 opls_157      1 RES        0.145000
     885 O           12.0961    29.9262    28.2259 opls_154      1 RES       -0.683000
     886 H           11.9664    29.0866    27.8120 opls_155      1 RES        0.418000
     887 H           12.9240    30.6064    30.0149 opls_140      1 RES        0.060000
     888 H           11.5967    29.5037    30.0878 opls_140      1 RES        0.060000
     889 H           13.0353    27.7219    29.7202 opls_140      1 RES        0.060000
     890 H           14.0480    28.7290    30.7502 opls_140      1 RES        0.060000
     891 H           14.4400    28.6398    29.0498 opls_140      1 RES        0.060000
     892 C           29.5709    25.2637    23.0731 opls_135      1 RES       -0.180000
     893 C           30.3595    24.0131    23.4629 opls_157      1 RES        0.145000
     894 O           29.7377    23.1276    24.3670 opls_154      1 RES       -0.683000
     895 H           28.8410    23.0066    24.0942 opls_155      1 RES        0.418000
     896 H           31.3103    24.3910    23.8385 opls_140      1 RES        0.060000
     897 H           30.6269    23.3727    22.6223 opls_140      1 RES        0.060000
     898 H           28.8864    24.8755    22.3189 opls_140      1 RES        0.060000
     899 H           30.2178    25.9957    22.5895 opls_140      1 RES        0.060000
     900 H           29.0446    25.7919    23.8682 opls_140      1 RES        0.060000
     901 C           11.4007     3.8935    23.8152 opls_135      1 RES       -0.180000
     902 C           11.8995     2.7354    24.6800 opls_157      1 RES        0.145000
     903 O           12.8613     3.0464    25.6630 opls_154      1 RES       -0.683000
     904 H           12.5858     3.8326    26.1091 opls_155      1 RES        0.418000
     905 H           12.2581     1.9923    23.9678 opls_140      1 RES        0.060000
     906 H           11.1160     2.2270    25.2421 opls_140      1 RES        0.060000
     907 H           10.6695     4.3680    24.4697 opls_140      1 RES        0.060000
     908 H           10.8705     3.5229    22.9380 opls_140      1 RES        0.060000
     909 H           12.1439     4.6033    23.4519 opls_140      1 RES        0.060000
     910 C           15.0376    12.8932    19.8096 opls_135      1 RES       -0.180000
     911 C           14.1961    11.7030    19.3478 opls_157      1 RES        0.145000
     912 O           14.4147    11.2442    18.0326 opls_154      1 RES       -0.683000
     913 H           15.3471    11.1983    17.8858 opls_155      1 RES        0.418000
     914 H           13.1642    12.0121    19.5142 opls_140      1 RES        0.060000
     915 H           14.3193    10.8058    19.9544 opls_140      1 RES        0.060000
     916 H           15.9839    12.4171    20.0664 opls_140      1 RES        0.060000
     917 H           14.6269    13.3291    20.7204 opls_140      1 RES        0.060000
     918 H           15.1722    13.7145    19.1057 opls_140      1 RES        0.060000
     919 C           10.5153     9.9981    16.8864 opls_135      1 RES       -0.180000
     920 C           11.1843    11.1568    17.6264 opls_157      1 RES        0.145000
     921 O           10.9587    11.2364    19.0160 opls_154      1 RES       -0.683000
     922 H           11.0610    10.3715    19.3829 opls_155      1 RES        0.418000
     923 H           10.8517    12.0511    17.0993 opls_140      1 RES        0.060000
     924 H           12.2711    11.1727    17.5435 opls_140      1 RES        0.060000
     925 H           11.1879     9.1689    17.1061 opls_140      1 RES        0.060000
     926 H           10.5326    10.1636    15.8092 opls_140      1 RES        0.060000
     927 H            9.4830     9.7661    17.1482 opls_140      1 RES        0.060000
     928 C           24.3660    24.1683     8.9205 opls_135      1 RES       -0.180000
     929 C           23.0294    24.0840     9.6583 opls_157      1 RES        0.145000
     930 O           22.5208    22.7919     9.9034 opls_154      1 RES       -0.683000
     931 H           23.2268    22.2512    10.2231 opls_155      1 RES        0.418000
     932 H           22.3472    24.6939     9.0661 opls_140      1 RES        0.060000
     933 H           23.0329    24.5478    10.6447 opls_140      1 RES        0.060000
     934 H           25.0802    23.9710     9.7199 opls_140      1 RES        0.060000
     935 H           24.5455    25.1799     8.5565 opls_140      1 RES        0.060000
     936 H           24.5115    23.5021     8.0702 opls_140      1 RES        0.060000
     937 C            6.1014     8.8086    31.8179 opls_135      1 RES       -0.180000
     938 C            7.0167     8.4578    32.9914 opls_157      1 RES        0.145000
     939 O            6.5782     8.8434    34.2748 opls_154      1 RES       -0.683000
     940 H            5.6642     8.6177    34.3561 opls_155      1 RES        0.418000
     941 H            7.9802     8.8965    32.7320 opls_140      1 RES        0.060000
     942 H            7.2162     7.3917    33.0999 opls_140      1 RES        0.060000
     943 H            5.3532     8.0175    31.8682 opls_140      1 RES        0.060000
     944 H            6.6293     8.7070    30.8697 opls_140      1 RES        0.060000
     945 H            5.6474     9.7996    31.8158 opls_140      1 RES        0.060000
     946 C           33.3709    19.9155    30.5499 opls_135      1 RES       -0.180000
     947 C           32.8951    21.3673    30.6124 opls_157      1 RES        0.145000
     948 O           32.4079    21.8219    31.8550 opls_154      1 RES       -0.683000
     949 H           33.0015    21.5313    32.5304 opls_155      1 RES        0.418000
     950 H           32.1521    21.4497    29.8191 opls_140      1 RES        0.060000
     951 H           33.6598    22.1001    30.3549 opls_140      1 RES        0.060000
     952 H           34.3674    19.9835    30.9862 opls_140      1 RES        0.060000
     953 H           33.4822    19.5875    29.5164 opls_140      1 RES        0.060000
     954 H           32.7574    19.1656    31.0493 opls_140      1 RES        0.060000
     955 C           13.9340    10.0362     8.0788 opls_135      1 RES       -0.180000
     956 C           13.8225     8.9723     6.9864 opls_157      1 RES        0.145000
     957 O           12.8256     9.1691     6.0089 opls_154      1 RES       -0.683000
     958 H           12.8559    10.0722     5.7324 opls_155      1 RES        0.418000
     959 H           13.6963     8.0335     7.5258 opls_140      1 RES        0.060000
     960 H           14.7311     8.8363     6.3999 opls_140      1 RES        0.060000
     961 H           14.4959    10.8224     7.5745 opls_140      1 RES        0.060000
     962 H           14.5393     9.6766     8.9109 opls_140      1 RES        0.060000
     963 H           13.0055    10.4109     8.5096 opls_140      1 RES        0.060000
     964 C            8.8822    28.6985    30.3797 opls_135      1 RES       -0.180000
     965 C            9.0038    27.9266    29.0654 opls_157      1 RES        0.145000
     966 O           10.2921    27.8368    28.4997 opls_154      1 RES       -0.683000
     967 H           10.9034    27.6204    29.1872 opls_155      1 RES        0.418000
     968 H            8.2882    28.4044    28.3963 opls_140      1 RES        0.060000
     969 H            8.6787    26.8879    29.1250 opls_140      1 RES        0.060000
     970 H            9.2189    27.9615    31.1087 opls_140      1 RES        0.060000
     971 H            7.8399    28.9306    30.5987 opls_140      1 RES        0.060000
     972 H            9.4329    29.6355    30.4629 opls_140      1 RES        0.060000
     973 C           10.4497    22.1147    32.8498 opls_135      1 RES       -0.180000
     974 C            9.6479    20.8147    32.7804 opls_157      1 RES        0.145000
     975 O           10.3266    19.6760    32.2997 opls_154      1 RES       -0.683000
     976 H           11.1752    19.6399    32.7139 opls_155      1 RES        0.418000
     977 H            8.7721    21.0610    32.1800 opls_140      1 RES        0.060000
     978 H            9.2452    20.4857    33.7384 opls_140      1 RES        0.060000
     979 H           11.0146    21.9849    33.7728 opls_140      1 RES        0.060000
     980 H            9.7892    22.9717    32.9821 opls_140      1 RES        0.060000
     981 H           11.0972    22.3494    32.0050 opls_140      1 RES        0.060000
     982 C           32.9916    26.5214    11.3441 opls_135      1 RES       -0.180000
     983 C           33.4517    25.7407    10.1126 opls_157      1 RES        0.145000
     984 O           33.4998    26.4489     8.8943 opls_154      1 RES       -0.683000
     985 H           33.9083    27.2859     9.0539 opls_155      1 RES        0.418000
     986 H           32.7861    24.8787    10.0664 opls_140      1 RES        0.060000
     987 H           34.4517    25.3159    10.2000 opls_140      1 RES        0.060000
     988 H           33.8964    27.0620    11.6221 opls_140      1 RES        0.060000
     989 H           32.7437    25.8453    12.1623 opls_140      1 RES        0.060000
     990 H           32.1385    27.1891    11.2238 opls_140      1 RES        0.060000
     991 C           29.3890    27.6454     2.8394 opls_135      1 RES       -0.180000
     992 C           29.8916    26.3689     3.5144 opls_157      1 RES        0.145000
     993 O           29.5040    25.1466     2.9279 opls_154      1 RES       -0.683000
     994 H           29.6202    25.2166     1.9927 opls_155      1 RES        0.418000
     995 H           29.5635    26.4555     4.5502 opls_140      1 RES        0.060000
     996 H           30.9773    26.2909     3.5718 opls_140      1 RES        0.060000
     997 H           30.0850    27.7523     2.0074 opls_140      1 RES        0.060000
     998 H           29.5184    28.5075     3.4937 opls_140      1 RES        0.060000
     999 H           28.3510    27.6608     2.5072 opls_140      1 RES        0.060000
    1000 C           28.8471    14.7012     8.6333 opls_135      1 RES       -0.180000
    1001 C           30.3225    14.3138     8.7378 opls_157      1 RES        0.145000
    1002 O           31.1075    14.4884     7.5796 opls_154      1 RES       -0.683000
    1003 H           30.9071    15.3350     7.2106 opls_155      1 RES        0.418000
    1004 H           30.3137    13.2797     9.0821 opls_140      1 RES        0.060000
    1005 H           30.8747    14.8578     9.5042 opls_140      1 RES        0.060000
    1006 H           28.8873    15.7844     8.7483 opls_140      1 RES        0.060000
    1007 H           28.2795    14.2988     9.4724 opls_140      1 RES        0.060000
    1008 H           28.3149    14.4067     7.7288 opls_140      1 RES        0.060000
    1009 C           14.7017    12.3707    13.8698 opls_135      1 RES       -0.180000
    1010 C           15.3223    11.9162    15.1912 opls_157      1 RES        0.145000
    1011 O           15.0659    12.7193    16.3214 opls_154      1 RES       -0.683000
    1012 H           14.1466    12.9380    16.3273 opls_155      1 RES        0.418000
    1013 H           16.3876    11.8240    14.9797 opls_140      1 RES        0.060000
    1014 H           15.0146    10.9206    15.5109 opls_140      1 RES        0.060000
    1015 H           13.6754    12.0162    13.9663 opls_140      1 RES        0.060000
    1016 H           15.1558    11.8486    13.0276 opls_140      1 RES        0.060000
    1017 H           14.7453    13.4344    13.6356 opls_140      1 RES        0.060000
    1018 C           16.7978    24.1877    30.6732 opls_135      1 RES       -0.180000
    1019 C           15.5015    24.4999    29.9248 opls_157      1 RES        0.145000
    1020 O           15.2337    25.8587    29.6601 opls_154      1 RES       -0.683000
    1021 H           16.0266    26.2601    29.3389 opls_155      1 RES        0.418000
    1022 H           14.7182    24.0300    30.5195 opls_140      1 RES        0.060000
    1023 H           15.4267    24.0298    28.9443 opls_140      1 RES        0.060000
    1024 H           17.5397    24.2433    29.8766 opls_140      1 RES        0.060000
    1025 H           16.7915    23.1653    31.0509 opls_140      1 RES        0.060000
    1026 H           17.0560    24.8285    31.5163 opls_140      1 RES        0.060000
    1027 C           23.3408    21.6408    24.2878 opls_135      1 RES       -0.180000
    1028 C           22.3352    22.3291    25.2114 opls_157      1 RES        0.145000
    1029 O           22.2307    21.8241    26.5237 opls_154      1 RES       -0.683000
    1030 H           23.1035    21.6873    26.8591 opls_155      1 RES        0.418000
    1031 H           21.3888    22.2851    24.6723 opls_140      1 RES        0.060000
    1032 H           22.5210    23.3926    25.3616 opls_140      1 RES        0.060000
    1033 H           24.2831    22.0895    24.6023 opls_140      1 RES        0.060000
    1034 H           23.1693    21.9218    23.2487 opls_140      1 RES        0.060000
    1035 H           23.3795    20.5518    24.3126 opls_140      1 RES        0.060000
    1036 C            7.6276    30.5400     8.2431 opls_135      1 RES       -0.180000
    1037 C            7.8078    31.9967     8.6713 opls_157      1 RES        0.145000
    1038 O            8.6182    32.2298     9.8014 opls_154      1 RES       -0.683000
    1039 H            9.3982    31.7024     9.7207 opls_155      1 RES        0.418000
    1040 H            6.7938    32.3747     8.8017 opls_140      1 RES        0.060000
    1041 H            8.2473    32.6368     7.9063 opls_140      1 RES        0.060000
    1042 H            8.5515    30.3469     7.6979 opls_140      1 RES        0.060000
    1043 H            6.8002    30.4413     7.5404 opls_140      1 RES        0.060000
    1044 H            7.4566    29.8045     9.0291 opls_140      1 RES        0.060000
    1045 C            7.9957    29.5120    33.5254 opls_135      1 RES       -0.180000
    1046 C            6.6106    29.0174    33.1075 opls_157      1 RES        0.145000
    1047 O            6.5489    27.7509    32.4909 opls_154      1 RES       -0.683000
    1048 H            7.0912    27.1544    32.9840 opls_155      1 RES        0.418000
    1049 H            6.2138    29.8090    32.4719 opls_140      1 RES        0.060000
    1050 H            5.8982    28.9360    33.9284 opls_140      1 RES        0.060000
    1051 H            8.1548    28.9787    34.4627 opls_140      1 RES        0.060000
    1052 H            7.9761    30.5786    33.7491 opls_140      1 RES        0.060000
    1053 H            8.8155    29.3570    32.8239 opls_140      1 RES        0.060000
    1054 C           24.1171    28.5013    25.3508 opls_135      1 RES       -0.180000
    1055 C           24.1771    30.0162    25.1525 opls_157      1 RES        0.145000
    1056 O           24.0206    30.4897    23.8336 opls_154      1 RES       -0.683000
    1057 H           23.2967    30.0294    23.4373 opls_155      1 RES        0.418000
    1058 H           25.1287    30.3157    25.5916 opls_140      1 RES        0.060000
    1059 H           23.4248    30.5709    25.7133 opls_140      1 RES        0.060000
    1060 H           23.0435    28.3131    25.3442 opls_140      1 RES        0.060000
    1061 H           24.4973    28.2230    26.3337 opls_140      1 RES        0.060000
    1062 H           24.6444    27.8802    24.6268 opls_140      1 RES        0.060000
    1063 C           22.8918    19.3099    18.2458 opls_135      1 RES       -0.180000
    1064 C           23.8918    18.5961    17.3357 opls_157      1 RES        0.145000
    1065 O           23.6105    18.6053    15.9540 opls_154      1 RES       -0.683000
    1066 H           23.3512    19.4807    15.7101 opls_155      1 RES        0.418000
    1067 H           23.9615    17.5859    17.7390 opls_140      1 RES        0.060000
    1068 H           24.9070    18.9889    17.3915 opls_140      1 RES        0.060000
    1069 H           23.1833    20.3538    18.1300 opls_140      1 RES        0.060000
    1070 H           23.0501    19.0343    19.2884 opls_140      1 RES        0.060000
    1071 H           21.8319    19.1575    18.0419 opls_140      1 RES        0.060000
    1072 C           18.8731    20.5547    15.2767 opls_135      1 RES       -0.180000
    1073 C           18.8882    21.0417    13.8274 opls_157      1 RES        0.145000
    1074 O           19.8485    20.4615    12.9735 opls_154      1 RES       -0.683000
    1075 H           19.8465    19.5274    13.1164 opls_155      1 RES        0.418000
    1076 H           18.9961    22.1239    13.8999 opls_140      1 RES        0.060000
    1077 H           17.9492    20.8906    13.2949 opls_140      1 RES        0.060000
    1078 H           18.3251    19.6159    15.1958 opls_140      1 RES        0.060000
    1079 H           18.2899    21.2267    15.9062 opls_140      1 RES        0.060000
    1080 H           19.8357    20.4236    15.7710 opls_140      1 RES        0.060000
    1081 C           13.1749    31.8854    11.9380 opls_135      1 RES       -0.180000
    1082 C           14.1230    30.8502    12.5439 opls_157      1 RES        0.145000
    1083 O           15.4890    31.1958    12.5972 opls_154      1 RES       -0.683000
    1084 H           15.5579    32.0837    12.9135 opls_155      1 RES        0.418000
    1085 H           13.9462    29.9419    11.9678 opls_140      1 RES        0.060000
    1086 H           13.8889    30.5773    13.5729 opls_140      1 RES        0.060000
    1087 H           13.0317    32.5767    12.7685 opls_140      1 RES        0.060000
    1088 H           12.2080    31.4384    11.7071 opls_140      1 RES        0.060000
    1089 H           13.5041    32.3972    11.0337 opls_140      1 RES        0.060000
    1090 C            4.0643    23.8673    24.9287 opls_135      1 RES       -0.180000
    1091 C            2.7149    23.8816    24.2099 opls_157      1 RES        0.145000
    1092 O            1.9941    22.6699    24.1904 opls_154      1 RES       -0.683000
    1093 H            2.0187    22.2963    25.0580 opls_155      1 RES        0.418000
    1094 H            2.9383    24.2486    23.2082 opls_140      1 RES        0.060000
    1095 H            1.9995    24.5970    24.6155 opls_140      1 RES        0.060000
    1096 H            3.7668    23.9552    25.9736 opls_140      1 RES        0.060000
    1097 H            4.6492    24.7512    24.6742 opls_140      1 RES        0.060000
    1098 H            4.7123    23.0072    24.7602 opls_140      1 RES        0.060000
    1099 C           15.0524    18.4700     2.7874 opls_135      1 RES       -0.180000
    1100 C           13.7136    19.2063     2.8442 opls_157      1 RES        0.145000
    1101 O           13.4587    19.9702     4.0016 opls_154      1 RES       -0.683000
    1102 H           14.2356    20.4681     4.2052 opls_155      1 RES        0.418000
    1103 H           12.9641    18.4311     2.6843 opls_140      1 RES        0.060000
    1104 H           13.5582    19.9157     2.0314 opls_140      1 RES        0.060000
    1105 H           15.7367    19.2644     2.4894 opls_140      1 RES        0.060000
    1106 H           15.0497    17.7197     1.9967 opls_140      1 RES        0.060000
    1107 H           15.3847    17.9644     3.6940 opls_140      1 RES        0.060000
    1108 C           33.6547    23.7687     5.9927 opls_135      1 RES       -0.180000
    1109 C           33.8794    22.6955     7.0583 opls_157      1 RES        0.145000
    1110 O           34.4688    23.1167     8.2680 opls_154      1 RES       -0.683000
    1111 H           34.0458    23.9164     8.5412 opls_155      1 RES        0.418000
    1112 H           34.4651    21.9252     6.5565 opls_140      1 RES        0.060000
    1113 H           32.9703    22.1882     7.3810 opls_140      1 RES        0.060000
    1114 H           32.7413    24.2495     6.3427 opls_140      1 RES        0.060000
    1115 H           33.4419    23.3159     5.0243 opls_140      1 RES        0.060000
    1116 H           34.4572    24.4880     5.8293 opls_140      1 RES        0.060000
    1117 C           20.6574     2.7554     4.2478 opls_135      1 RES       -0.180000
    1118 C           20.9585     3.5388     2.9697 opls_157      1 RES        0.145000
    1119 O           21.9050     2.9759     2.0891 opls_154      1 RES       -0.683000
    1120 H           21.7138     2.0550     1.9977 opls_155      1 RES        0.418000
    1121 H           21.2503     4.5307     3.3150 opls_140      1 RES        0.060000
    1122 H           20.0894     3.7096     2.3344 opls_140      1 RES        0.060000
    1123 H           19.9643     1.9939     3.8902 opls_140      1 RES        0.060000
    1124 H           20.1255     3.3770     4.9681 opls_140      1 RES        0.060000
    1125 H           21.5034     2.3195     4.7790 opls_140      1 RES        0.060000
    1126 C           23.4002    15.9834     3.9272 opls_135      1 RES       -0.180000
    1127 C           23.7681    16.7209     2.6393 opls_157      1 RES        0.145000
    1128 O           22.7335    17.4331     1.9987 opls_154      1 RES       -0.683000
    1129 H           22.2575    17.9188     2.6550 opls_155      1 RES        0.418000
    1130 H           24.2056    15.9562     1.9975 opls_140      1 RES        0.060000
    1131 H           24.5541    17.4665     2.7596 opls_140      1 RES        0.060000
    1132 H           23.4143    16.7881     4.6623 opls_140      1 RES        0.060000
    1133 H           24.1767    15.2692     4.2012 opls_140      1 RES        0.060000
    1134 H           22.4573    15.4367     3.9392 opls_140      1 RES        0.060000
    1135 C           11.4837    25.5469    16.9645 opls_135      1 RES       -0.180000
    1136 C           10.0223    25.9080    17.2322 opls_157      1 RES        0.145000
    1137 O            9.5754    25.7959    18.5648 opls_154      1 RES       -0.683000
    1138 H           10.2273    26.1819    19.1296 opls_155      1 RES        0.418000
    1139 H            9.4518    25.2798    16.5482 opls_140      1 RES        0.060000
    1140 H            9.7567    26.9294    16.9595 opls_140      1 RES        0.060000
    1141 H           12.0034    26.4513    17.2806 opls_140      1 RES        0.060000
    1142 H           11.6623    25.4167    15.8971 opls_140      1 RES        0.060000
    1143 H           11.8778    24.6573    17.4559 opls_140      1 RES        0.060000
    1144 C            8.3514     3.0478    26.8074 opls_135      1 RES       -0.180000
    1145 C            9.4316     2.9518    27.8853 opls_157      1 RES        0.145000
    1146 O            9.0089     3.1039    29.2218 opls_154      1 RES       -0.683000
    1147 H            8.2265     2.5887    29.3458 opls_155      1 RES        0.418000
    1148 H           10.1765     3.6938    27.5978 opls_140      1 RES        0.060000
    1149 H            9.9711     2.0048    27.8949 opls_140      1 RES        0.060000
    1150 H            7.9038     2.0546    26.8444 opls_140      1 RES        0.060000
    1151 H            8.7973     3.1749    25.8210 opls_140      1 RES        0.060000
    1152 H            7.6055     3.8354    26.9147 opls_140      1 RES        0.060000
    1153 C           23.8819     8.1233    30.1875 opls_135      1 RES       -0.180000
    1154 C           22.7428     8.7857    29.4119 opls_157      1 RES        0.145000
    1155 O           23.0889     9.4383    28.2109 opls_154      1 RES       -0.683000
    1156 H           23.6735     8.8762    27.7259 opls_155      1 RES        0.418000
    1157 H           22.2730     9.4579    30.1299 opls_140      1 RES        0.060000
    1158 H           21.9496     8.1016    29.1107 opls_140      1 RES        0.060000
    1159 H           24.0135     7.1876    29.6441 opls_140      1 RES        0.060000
    1160 H           23.5692     7.8772    31.2022 opls_140      1 RES        0.060000
    1161 H           24.8161     8.6779    30.2765 opls_140      1 RES        0.060000
    1162 C           13.9147    30.3281     9.3449 opls_135      1 RES       -0.180000
    1163 C           12.8270    31.2256     8.7539 opls_157      1 RES        0.145000
    1164 O           13.2259    32.5095     8.3290 opls_154      1 RES       -0.683000
    1165 H           14.0296    32.4234     7.8394 opls_155      1 RES        0.418000
    1166 H           12.0523    31.2631     9.5197 opls_140      1 RES        0.060000
    1167 H           12.3314    30.8095     7.8767 opls_140      1 RES        0.060000
    1168 H           14.4069    29.9473     8.4500 opls_140      1 RES        0.060000
    1169 H           13.4754    29.4795     9.8693 opls_140      1 RES        0.060000
    1170 H           14.6222    30.7872    10.0353 opls_140      1 RES        0.060000
    1171 C           21.7972     2.9510    27.2839 opls_135      1 RES       -0.180000
    1172 C           20.8304     4.0903    27.6080 opls_157      1 RES        0.145000
    1173 O           21.3611     5.3965    27.5909 opls_154      1 RES       -0.683000
    1174 H           21.8957     5.4891    26.8172 opls_155      1 RES        0.418000
    1175 H           20.4062     3.8266    28.5769 opls_140      1 RES        0.060000
    1176 H           19.9737     4.1546    26.9372 opls_140      1 RES        0.060000
    1177 H           21.8359     2.9880    26.1952 opls_140      1 RES        0.060000
    1178 H           21.3726     1.9884    27.5688 opls_140      1 RES        0.060000
    1179 H           22.7911     2.9958    27.7290 opls_140      1 RES        0.060000
    1180 C           21.3353    16.6424    22.4301 opls_135      1 RES       -0.180000
    1181 C           21.6436    17.2615    21.0665 opls_157      1 RES        0.145000
    1182 O           20.7878    18.2940    20.6308 opls_154      1 RES       -0.683000
    1183 H           20.6463    18.8864    21.3533 opls_155      1 RES        0.418000
    1184 H           21.6617    16.4177    20.3768 opls_140      1 RES        0.060000
    1185 H           22.6366    17.7046    20.9905 opls_140      1 RES        0.060000
    1186 H           21.7661    17.3731    23.1146 opls_140      1 RES        0.060000
    1187 H           21.8753    15.7048    22.5619 opls_140      1 RES        0.060000
    1188 H           20.2906    16.4340    22.6608 opls_140      1 RES        0.060000
    1189 C           31.0710    13.4161    29.0378 opls_135      1 RES       -0.180000
    1190 C           31.5309    14.8366    28.7084 opls_157      1 RES        0.145000
    1191 O           32.9142    15.0929    28.8021 opls_154      1 RES       -0.683000
    1192 H           33.3764    14.3809    28.3868 opls_155      1 RES        0.418000
    1193 H           30.9439    15.4774    29.3664 opls_140      1 RES        0.060000
    1194 H           31.2783    15.1663    27.7007 opls_140      1 RES        0.060000
    1195 H           31.2955    12.8840    28.1134 opls_140      1 RES        0.060000
    1196 H           29.9918    13.3821    29.1872 opls_140      1 RES        0.060000
    1197 H           31.5199    12.9330    29.9056 opls_140      1 RES        0.060000
    1198 C           21.3963    30.4442     3.7742 opls_135      1 RES       -0.180000
    1199 C           21.1095    29.8611     5.1582 opls_157      1 RES        0.145000
    1200 O           20.0543    30.4471     5.8871 opls_154      1 RES       -0.683000
    1201 H           19.3191    30.5612     5.3044 opls_155      1 RES        0.418000
    1202 H           22.0616    29.9188     5.6859 opls_140      1 RES        0.060000
    1203 H           20.8577    28.8006     5.1535 opls_140      1 RES        0.060000
    1204 H           20.6280    29.9699     3.1636 opls_140      1 RES        0.060000
    1205 H           22.3665    30.1110     3.4058 opls_140      1 RES        0.060000
    1206 H           21.3829    31.5297     3.6756 opls_140      1 RES        0.060000
    1207 C            4.0094    11.0766    29.0329 opls_135      1 RES       -0.180000
    1208 C            2.8005    12.0076    29.1317 opls_157      1 RES        0.145000
    1209 O            2.1274    12.3026    27.9284 opls_154      1 RES       -0.683000
    1210 H            2.0158    11.4976    27.4462 opls_155      1 RES        0.418000
    1211 H            3.1794    12.9020    29.6262 opls_140      1 RES        0.060000
    1212 H            2.0074    11.6432    29.7846 opls_140      1 RES        0.060000
    1213 H            3.5377    10.0952    28.9835 opls_140      1 RES        0.060000
    1214 H            4.6040    11.1140    29.9457 opls_140      1 RES        0.060000
    1215 H            4.7003    11.2390    28.2056 opls_140      1 RES        0.060000
    1216 C            9.7220    14.0214     9.9938 opls_135      1 RES       -0.180000
    1217 C           10.3523    13.1894    11.1112 opls_157      1 RES        0.145000
    1218 O           11.7611    13.1606    11.1627 opls_154      1 RES       -0.683000
    1219 H           12.0801    14.0425    11.0469 opls_155      1 RES        0.418000
    1220 H            9.9201    12.1956    10.9942 opls_140      1 RES        0.060000
    1221 H           10.0669    13.5006    12.1161 opls_140      1 RES        0.060000
    1222 H            9.7902    15.0321    10.3963 opls_140      1 RES        0.060000
    1223 H            8.6654    13.7800     9.8787 opls_140      1 RES        0.060000
    1224 H           10.1674    13.9467     9.0018 opls_140      1 RES        0.060000
    1225 C           20.9539     7.8320    14.1331 opls_135      1 RES       -0.180000
    1226 C           20.3849     7.1212    15.3614 opls_157      1 RES        0.145000
    1227 O           20.3515     7.8593    16.5623 opls_154      1 RES       -0.683000
    1228 H           20.0207     8.7234    16.3701 opls_155      1 RES        0.418000
    1229 H           20.9737     6.2083    15.4508 opls_140      1 RES        0.060000
    1230 H           19.3567     6.7790    15.2440 opls_140      1 RES        0.060000
    1231 H           20.1085     8.4391    13.8093 opls_140      1 RES        0.060000
    1232 H           21.1743     7.1186    13.3389 opls_140      1 RES        0.060000
    1233 H           21.8550     8.4292    14.2728 opls_140      1 RES        0.060000
    1234 C           12.3856     5.5069    30.1362 opls_135      1 RES       -0.180000
    1235 C           13.7222     5.9572    29.5458 opls_157      1 RES        0.145000
    1236 O           13.8077     7.2988    29.1205 opls_154      1 RES       -0.683000
    1237 H           13.4224     7.8464    29.7874 opls_155      1 RES        0.418000
    1238 H           13.9204     5.2518    28.7388 opls_140      1 RES        0.060000
    1239 H           14.5693     5.8503    30.2234 opls_140      1 RES        0.060000
    1240 H           12.4454     5.8911    31.1544 opls_140      1 RES        0.060000
    1241 H           12.3331     4.4197    30.1938 opls_140      1 RES        0.060000
    1242 H           11.4782     5.8350    29.6291 opls_140      1 RES        0.060000
    1243 C           10.4238    33.8078     7.5249 opls_135      1 RES       -0.180000
    1244 C           10.8970    32.8386     6.4411 opls_157      1 RES        0.145000
    1245 O           10.8306    33.2956     5.1088 opls_154      1 RES       -0.683000
    1246 H           11.1709    34.1767     5.0804 opls_155      1 RES        0.418000
    1247 H           10.3079    31.9355     6.6007 opls_140      1 RES        0.060000
    1248 H           11.9331    32.5179     6.5491 opls_140      1 RES        0.060000
    1249 H           11.2890    34.4607     7.6400 opls_140      1 RES        0.060000
    1250 H           10.2713    33.2883     8.4708 opls_140      1 RES        0.060000
    1251 H            9.5112    34.3709     7.3293 opls_140      1 RES        0.060000
    1252 C           25.1725    21.6670    21.4128 opls_135      1 RES       -0.180000
    1253 C           24.6070    22.0578    20.0471 opls_157      1 RES        0.145000
    1254 O           24.8379    23.3818    19.6205 opls_154      1 RES       -0.683000
    1255 H           25.7424    23.5950    19.7919 opls_155      1 RES        0.418000
    1256 H           23.5451    21.8200    20.1085 opls_140      1 RES        0.060000
    1257 H           24.9800    21.4548    19.2192 opls_140      1 RES        0.060000
    1258 H           26.2198    21.4753    21.1793 opls_140      1 RES        0.060000
    1259 H           24.7334    20.7324    21.7620 opls_140      1 RES        0.060000
    1260 H           25.0607    22.3850    22.2252 opls_140      1 RES        0.060000
    1261 C           33.8445    27.7132    19.7555 opls_135      1 RES       -0.180000
    1262 C           33.5774    28.7003    18.6188 opls_157      1 RES        0.145000
    1263 O           33.2740    28.1478    17.3575 opls_154      1 RES       -0.683000
    1264 H           32.6480    27.4509    17.4819 opls_155      1 RES        0.418000
    1265 H           34.4613    29.3376    18.5918 opls_140      1 RES        0.060000
    1266 H           32.7478    29.3825    18.8043 opls_140      1 RES        0.060000
    1267 H           32.8349    27.4299    20.0531 opls_140      1 RES        0.060000
    1268 H           34.3125    28.2142    20.6029 opls_140      1 RES        0.060000
    1269 H           34.4619    26.8439    19.5292 opls_140      1 RES        0.060000
    1270 C           22.1468    26.0338     6.7498 opls_135      1 RES       -0.180000
    1271 C           22.9713    27.1213     7.4393 opls_157      1 RES        0.145000
    1272 O           24.2262    27.4217     6.8709 opls_154      1 RES       -0.683000
    1273 H           24.1193    27.4877     5.9343 opls_155      1 RES        0.418000
    1274 H           23.0521    26.7927     8.4754 opls_140      1 RES        0.060000
    1275 H           22.4770    28.0913     7.4925 opls_140      1 RES        0.060000
    1276 H           21.7076    26.5770     5.9131 opls_140      1 RES        0.060000
    1277 H           21.3327    25.6979     7.3921 opls_140      1 RES        0.060000
    1278 H           22.6739    25.1377     6.4225 opls_140      1 RES        0.060000
    1279 C           29.2638    33.6772    28.9612 opls_135      1 RES       -0.180000
    1280 C           30.4090    32.7377    28.5821 opls_157      1 RES        0.145000
    1281 O           31.1931    33.1099    27.4709 opls_154      1 RES       -0.683000
    1282 H           31.3945    34.0303    27.5452 opls_155      1 RES        0.418000
    1283 H           29.9367    31.7642    28.4503 opls_140      1 RES        0.060000
    1284 H           31.1436    32.5860    29.3730 opls_140      1 RES        0.060000
    1285 H           29.7846    34.4603    29.5122 opls_140      1 RES        0.060000
    1286 H           28.5732    33.1897    29.6493 opls_140      1 RES        0.060000
    1287 H           28.6592    34.0825    28.1499 opls_140      1 RES        0.060000
    1288 C           16.1375    25.7937     8.8955 opls_135      1 RES       -0.180000
    1289 C           16.2655    27.2961     9.1493 opls_157      1 RES        0.145000
    1290 O           15.0768    27.9916     9.4517 opls_154      1 RES       -0.683000
    1291 H           14.5899    27.4855    10.0841 opls_155      1 RES        0.418000
    1292 H           16.7606    27.6861     8.2600 opls_140      1 RES        0.060000
    1293 H           16.9293    27.5556     9.9740 opls_140      1 RES        0.060000
    1294 H           16.0883    25.3950     9.9088 opls_140      1 RES        0.060000
    1295 H           17.0399    25.4007     8.4272 opls_140      1 RES        0.060000
    1296 H           15.2994    25.4587     8.2844 opls_140      1 RES        0.060000
    1297 C           28.7972     9.3139     9.0493 opls_135      1 RES       -0.180000
    1298 C           30.2877     9.0788     9.2959 opls_157      1 RES        0.145000
    1299 O           31.0994     8.9055     8.1560 opls_154      1 RES       -0.683000
    1300 H           30.8642     9.5651     7.5215 opls_155      1 RES        0.418000
    1301 H           30.3256     8.2212     9.9676 opls_140      1 RES        0.060000
    1302 H           30.7830     9.8820     9.8416 opls_140      1 RES        0.060000
    1303 H           28.7728    10.3733     8.7940 opls_140      1 RES        0.060000
    1304 H           28.2258     9.1801     9.9678 opls_140      1 RES        0.060000
    1305 H           28.3124     8.7003     8.2900 opls_140      1 RES        0.060000
    1306 C           27.7015    16.5152     5.7641 opls_135      1 RES       -0.180000
    1307 C           28.7075    16.8096     4.6509 opls_157      1 RES        0.145000
    1308 O           28.2592    16.6272     3.3266 opls_154      1 RES       -0.683000
    1309 H           27.4008    17.0146     3.2482 opls_155      1 RES        0.418000
    1310 H           29.5714    16.1882     4.8867 opls_140      1 RES        0.060000
    1311 H           29.0900    17.8303     4.6520 opls_140      1 RES        0.060000
    1312 H           27.1017    17.4253     5.7756 opls_140      1 RES        0.060000
    1313 H           28.2023    16.4349     6.7289 opls_140      1 RES        0.060000
    1314 H           27.0854    15.6222     5.6589 opls_140      1 RES        0.060000
    1315 C           30.6637    26.2877    19.6618 opls_135      1 RES       -0.180000
    1316 C           31.6047    25.0918    19.5132 opls_157      1 RES        0.145000
    1317 O           31.3131    24.1803    18.4778 opls_154      1 RES       -0.683000
    1318 H           31.1125    24.6731    17.6968 opls_155      1 RES        0.418000
    1319 H           31.6083    24.6184    20.4951 opls_140      1 RES        0.060000
    1320 H           32.6450    25.3611    19.3302 opls_140      1 RES        0.060000
    1321 H           31.0251    26.9600    18.8836 opls_140      1 RES        0.060000
    1322 H           30.8115    26.7812    20.6224 opls_140      1 RES        0.060000
    1323 H           29.5942    26.0975    19.5718 opls_140      1 RES        0.060000
    1324 C           33.8051    21.2458    23.3351 opls_135      1 RES       -0.180000
    1325 C           33.5087    22.4225    22.4049 opls_157      1 RES        0.145000
    1326 O           32.9333    22.1137    21.1552 opls_154      1 RES       -0.683000
    1327 H           32.2401    21.4868    21.2949 opls_155      1 RES        0.418000
    1328 H           34.4604    22.9447    22.3068 opls_140      1 RES        0.060000
    1329 H           32.8268    23.1628    22.8233 opls_140      1 RES        0.060000
    1330 H           32.8246    21.0438    23.7664 opls_140      1 RES        0.060000
    1331 H           34.4685    21.5486    24.1452 opls_140      1 RES        0.060000
    1332 H           34.2461    20.3541    22.8897 opls_140      1 RES        0.060000
    1333 C            2.6170    15.4948    16.6025 opls_135      1 RES       -0.180000
    1334 C            2.8687    15.9420    15.1622 opls_157      1 RES        0.145000
    1335 O            3.8695    15.2505    14.4492 opls_154      1 RES       -0.683000
    1336 H            3.7561    14.3248    14.6017 opls_155      1 RES        0.418000
    1337 H            3.0732    17.0102    15.2355 opls_140      1 RES        0.060000
    1338 H            1.9966    15.8694    14.5123 opls_140      1 RES        0.060000
    1339 H            1.9937    14.6118    16.4611 opls_140      1 RES        0.060000
    1340 H            2.0265    16.2356    17.1416 opls_140      1 RES        0.060000
    1341 H            3.4893    15.2833    17.2209 opls_140      1 RES        0.060000
    1342 C           33.5762     9.3380     9.7326 opls_135      1 RES       -0.180000
    1343 C           32.9598     8.0436    10.2639 opls_157      1 RES        0.145000
    1344 O           33.8504     7.0899    10.7982 opls_154      1 RES       -0.683000
    1345 H           34.4645     7.5391    11.3587 opls_155      1 RES        0.418000
    1346 H           32.3805     7.6495     9.4290 opls_140      1 RES        0.060000
    1347 H           32.2330     8.1892    11.0630 opls_140      1 RES        0.060000
    1348 H           33.7348     9.9074    10.6484 opls_140      1 RES        0.060000
    1349 H           32.8603     9.8863     9.1202 opls_140      1 RES        0.060000
    1350 H           34.4885     9.2528     9.1423 opls_140      1 RES        0.060000
    1351 C           22.9534    31.0637    32.2926 opls_135      1 RES       -0.180000
    1352 C           23.1234    31.4889    30.8338 opls_157      1 RES        0.145000
    1353 O           23.7778    30.5775    29.9798 opls_154      1 RES       -0.683000
    1354 H           23.4265    29.7152    30.1414 opls_155      1 RES        0.418000
    1355 H           23.6326    32.4514    30.8833 opls_140      1 RES        0.060000
    1356 H           22.1868    31.6957    30.3160 opls_140      1 RES        0.060000
    1357 H           22.0906    30.3999    32.2373 opls_140      1 RES        0.060000
    1358 H           22.6786    31.9148    32.9157 opls_140      1 RES        0.060000
    1359 H           23.8048    30.5861    32.7775 opls_140      1 RES        0.060000
    1360 C           17.1006    26.1896    27.1352 opls_135      1 RES       -0.180000
    1361 C           18.0755    26.5229    26.0054 opls_157      1 RES        0.145000
    1362 O           17.5105    26.9378    24.7820 opls_154      1 RES       -0.683000
    1363 H           16.8311    27.5678    24.9678 opls_155      1 RES        0.418000
    1364 H           18.6906    25.6295    25.8976 opls_140      1 RES        0.060000
    1365 H           18.7806    27.3194    26.2435 opls_140      1 RES        0.060000
    1366 H           16.8468    27.1787    27.5162 opls_140      1 RES        0.060000
    1367 H           17.6036    25.6446    27.9340 opls_140      1 RES        0.060000
    1368 H           16.2130    25.6121    26.8766 opls_140      1 RES        0.060000
    1369 C            3.1168     8.3031    11.0062 opls_135      1 RES       -0.180000
    1370 C            3.1551     7.3788    12.2236 opls_157      1 RES        0.145000
    1371 O            3.8409     6.1564    12.0702 opls_154      1 RES       -0.683000
    1372 H            4.6599     6.3290    11.6316 opls_155      1 RES        0.418000
    1373 H            2.1094     7.2374    12.4970 opls_140      1 RES        0.060000
    1374 H            3.6165     7.8208    13.1066 opls_140      1 RES        0.060000
    1375 H            4.0977     8.7765    11.0488 opls_140      1 RES        0.060000
    1376 H            2.3658     9.0827    11.1340 opls_140      1 RES        0.060000
    1377 H            2.9269     7.8452    10.0355 opls_140      1 RES        0.060000
    1378 C           17.9954     2.6001    20.1033 opls_135      1 RES       -0.180000
    1379 C           16.5819     3.1438    20.3137 opls_157      1 RES        0.145000
    1380 O           16.2872     3.6672    21.5893 opls_154      1 RES       -0.683000
    1381 H           17.0072     4.2174    21.8576 opls_155      1 RES        0.418000
    1382 H           15.9242     2.3186    20.0408 opls_140      1 RES        0.060000
    1383 H           16.3086     3.9533    19.6368 opls_140      1 RES        0.060000
    1384 H           18.5667     3.5120    19.9298 opls_140      1 RES        0.060000
    1385 H           18.0486     1.9970    19.1969 opls_140      1 RES        0.060000
    1386 H           18.4240     1.9965    20.9034 opls_140      1 RES        0.060000
    1387 C           19.4775    22.7948     7.6443 opls_135      1 RES       -0.180000
    1388 C           19.7386    21.5911     8.5503 opls_157      1 RES        0.145000
    1389 O           20.5671    21.8085     9.6704 opls_154      1 RES       -0.683000
    1390 H           20.2981    22.6133    10.0863 opls_155      1 RES        0.418000
    1391 H           20.1327    20.8234     7.8844 opls_140      1 RES        0.060000
    1392 H           18.8388    21.1514     8.9805 opls_140      1 RES        0.060000
    1393 H           18.7015    23.3286     8.1929 opls_140      1 RES        0.060000
    1394 H           19.0532    22.4787     6.6913 opls_140      1 RES        0.060000
    1395 H           20.3257    23.4375     7.4086 opls_140      1 RES        0.060000
    1396 C           34.0777    32.8565    24.0433 opls_135      1 RES       -0.180000
    1397 C           32.5691    33.0423    23.8774 opls_157      1 RES        0.145000
    1398 O           31.8925    33.7017    24.9240 opls_154      1 RES       -0.683000
    1399 H           32.3978    34.4610    25.1716 opls_155      1 RES        0.418000
    1400 H           32.1840    32.0379    23.7011 opls_140      1 RES        0.060000
    1401 H           32.2830    33.6097    22.9917 opls_140      1 RES        0.060000
    1402 H           34.4606    33.8361    23.7573 opls_140      1 RES        0.060000
    1403 H           34.4603    32.1283    23.3281 opls_140      1 RES        0.060000
    1404 H           34.4393    32.5478    25.0241 opls_140      1 RES        0.060000
    1405 C           16.7062     7.6608     8.8539 opls_135      1 RES       -0.180000
    1406 C           15.5929     7.3719     9.8614 opls_157      1 RES        0.145000
    1407 O           15.5380     8.2007    11.0007 opls_154      1 RES       -0.683000
    1408 H           15.6470     9.0968    10.7210 opls_155      1 RES        0.418000
    1409 H           15.7178     6.3199    10.1182 opls_140      1 RES        0.060000
    1410 H           14.5867     7.4400     9.4480 opls_140      1 RES        0.060000
    1411 H           16.2967     8.5040     8.2976 opls_140      1 RES        0.060000
    1412 H           16.8256     6.8302     8.1583 opls_140      1 RES        0.060000
    1413 H           17.6976     7.8777     9.2516 opls_140      1 RES        0.060000
    1414 C           22.4337    26.7400    16.6897 opls_135      1 RES       -0.180000
    1415 C           21.9777    27.7922    15.6784 opls_157      1 RES        0.145000
    1416 O           20.6981    27.6158    15.1132 opls_154      1 RES       -0.683000
    1417 H           20.0961    27.3920    15.8065 opls_155      1 RES        0.418000
    1418 H           22.7656    27.8126    14.9254 opls_140      1 RES        0.060000
    1419 H           21.9440    28.8075    16.0736 opls_140      1 RES        0.060000
    1420 H           21.9206    27.0587    17.5970 opls_140      1 RES        0.060000
    1421 H           23.5060    26.8143    16.8707 opls_140      1 RES        0.060000
    1422 H           22.2307    25.6958    16.4519 opls_140      1 RES        0.060000
    1423 C            6.4293    23.6603    27.8914 opls_135      1 RES       -0.180000
    1424 C            6.3465    22.5002    28.8839 opls_157      1 RES        0.145000
    1425 O            6.7325    22.7734    30.2123 opls_154      1 RES       -0.683000
    1426 H            6.3419    23.5939    30.4717 opls_155      1 RES        0.418000
    1427 H            6.9422    21.7066    28.4328 opls_140      1 RES        0.060000
    1428 H            5.3493    22.0733    28.9910 opls_140      1 RES        0.060000
    1429 H            5.5150    24.2123    28.1095 opls_140      1 RES        0.060000
    1430 H            6.3627    23.2990    26.8652 opls_140      1 RES        0.060000
    1431 H            7.3118    24.2983    27.9392 opls_140      1 RES        0.060000
    1432 C           13.2802    25.1620    27.3640 opls_135      1 RES       -0.180000
    1433 C           13.4107    26.2343    26.2818 opls_157      1 RES        0.145000
    1434 O           13.4809    25.7835    24.9477 opls_154      1 RES       -0.683000
    1435 H           12.8185    25.1211    24.8233 opls_155      1 RES        0.418000
    1436 H           14.2867    26.8149    26.5712 opls_140      1 RES        0.060000
    1437 H           12.5926    26.9545    26.2647 opls_140      1 RES        0.060000
    1438 H           12.2172    24.9248    27.3225 opls_140      1 RES        0.060000
    1439 H           13.4899    25.5775    28.3497 opls_140      1 RES        0.060000
    1440 H           13.9009    24.2716    27.2640 opls_140      1 RES        0.060000
    1441 C           17.7268    15.5096    22.6875 opls_135      1 RES       -0.180000
    1442 C           16.6235    15.0493    21.7341 opls_157      1 RES        0.145000
    1443 O           16.7534    15.4306    20.3828 opls_154      1 RES       -0.683000
    1444 H           17.6472    15.2784    20.1165 opls_155      1 RES        0.418000
    1445 H           15.6997    15.4150    22.1823 opls_140      1 RES        0.060000
    1446 H           16.4991    13.9677    21.6828 opls_140      1 RES        0.060000
    1447 H           18.5143    14.7816    22.4929 opls_140      1 RES        0.060000
    1448 H           17.4161    15.3938    23.7258 opls_140      1 RES        0.060000
    1449 H           18.0838    16.5342    22.5828 opls_140      1 RES        0.060000
    1450 C           21.1749    17.9471    14.6962 opls_135      1 RES       -0.180000
    1451 C           20.9321    17.1672    15.9888 opls_157      1 RES        0.145000
    1452 O           19.9507    17.6781    16.8628 opls_154      1 RES       -0.683000
    1453 H           19.1924    17.9150    16.3510 opls_155      1 RES        0.418000
    1454 H           21.9129    17.0988    16.4594 opls_140      1 RES        0.060000
    1455 H           20.6237    16.1330    15.8361 opls_140      1 RES        0.060000
    1456 H           20.3505    17.6093    14.0682 opls_140      1 RES        0.060000
    1457 H           22.1045    17.6328    14.2218 opls_140      1 RES        0.060000
    1458 H           21.2145    19.0340    14.7671 opls_140      1 RES        0.060000
    1459 C           33.8605    15.7375    32.7277 opls_135      1 RES       -0.180000
    1460 C           32.6675    16.6901    32.6442 opls_157      1 RES        0.145000
    1461 O           31.6605    16.5321    33.6185 opls_154      1 RES       -0.683000
    1462 H           32.0764    16.4317    34.4611 opls_155      1 RES        0.418000
    1463 H           32.2871    16.5697    31.6299 opls_140      1 RES        0.060000
    1464 H           32.9312    17.7451    32.7193 opls_140      1 RES        0.060000
    1465 H           34.4621    16.1942    33.5135 opls_140      1 RES        0.060000
    1466 H           34.4426    15.7625    31.8064 opls_140      1 RES        0.060000
    1467 H           33.6499    14.6880    32.9334 opls_140      1 RES        0.060000
    1468 C           14.8295     8.1949    23.6495 opls_135      1 RES       -0.180000
    1469 C           14.9327     8.7831    22.2420 opls_157      1 RES        0.145000
    1470 O           14.6427     7.9153    21.1692 opls_154      1 RES       -0.683000
    1471 H           13.8574     7.4342    21.3810 opls_155      1 RES        0.418000
    1472 H           15.9418     9.1912    22.1855 opls_140      1 RES        0.060000
    1473 H           14.2772     9.6357    22.0643 opls_140      1 RES        0.060000
    1474 H           13.7553     8.2275    23.8318 opls_140      1 RES        0.060000
    1475 H           15.3104     8.8466    24.3790 opls_140      1 RES        0.060000
    1476 H           15.2396     7.1972    23.8066 opls_140      1 RES        0.060000
    1477 C            6.2782    28.8357    25.9045 opls_135      1 RES       -0.180000
    1478 C            7.2933    27.7038    25.7425 opls_157      1 RES        0.145000
    1479 O            6.9093    26.4344    26.2213 opls_154      1 RES       -0.683000
    1480 H            6.0238    26.2659    25.9375 opls_155      1 RES        0.418000
    1481 H            8.1991    28.0730    26.2234 opls_140      1 RES        0.060000
    1482 H            7.5854    27.5092    24.7105 opls_140      1 RES        0.060000
    1483 H            5.6016    28.6562    25.0690 opls_140      1 RES        0.060000
    1484 H            6.7499    29.8058    25.7477 opls_140      1 RES        0.060000
    1485 H            5.7461    28.8990    26.8537 opls_140      1 RES        0.060000
    1486 C           30.0870     2.6347    21.7453 opls_135      1 RES       -0.180000
    1487 C           31.0932     3.4041    22.6017 opls_157      1 RES        0.145000
    1488 O           30.5916     4.4911    23.3465 opls_154      1 RES       -0.683000
    1489 H           29.7874     4.2198    23.7620 opls_155      1 RES        0.418000
    1490 H           31.8774     3.7032    21.9062 opls_140      1 RES        0.060000
    1491 H           31.6016     2.7957    23.3497 opls_140      1 RES        0.060000
    1492 H           29.6076     1.9895    22.4816 opls_140      1 RES        0.060000
    1493 H           30.5983     1.9951    21.0258 opls_140      1 RES        0.060000
    1494 H           29.3605     3.2186    21.1803 opls_140      1 RES        0.060000
    1495 C           12.4990    25.9012    20.4879 opls_135      1 RES       -0.180000
    1496 C           12.9710    25.2621    21.7943 opls_157      1 RES        0.145000
    1497 O           11.9916    25.0496    22.7862 opls_154      1 RES       -0.683000
    1498 H           11.2274    24.6774    22.3734 opls_155      1 RES        0.418000
    1499 H           13.7807    25.9045    22.1403 opls_140      1 RES        0.060000
    1500 H           13.4275    24.2798    21.6725 opls_140      1 RES        0.060000
    1501 H           12.0626    25.0513    19.9632 opls_140      1 RES        0.060000
    1502 H           13.3463    26.2550    19.9004 opls_140      1 RES        0.060000
    1503 H           11.8023    26.7361    20.5620 opls_140      1 RES        0.060000
    1504 C           17.7492    19.8666     6.3589 opls_135      1 RES       -0.180000
    1505 C           17.6916    18.9227     5.1574 opls_157      1 RES        0.145000
    1506 O           17.4020    19.5055     3.9066 opls_154      1 RES       -0.683000
    1507 H           17.9223    20.2892     3.8171 opls_155      1 RES        0.418000
    1508 H           16.9656    18.1600     5.4388 opls_140      1 RES        0.060000
    1509 H           18.6155    18.3739     4.9750 opls_140      1 RES        0.060000
    1510 H           18.7444    20.3002     6.2605 opls_140      1 RES        0.060000
    1511 H           17.7214    19.3071     7.2940 opls_140      1 RES        0.060000
    1512 H           16.9764    20.6319     6.4320 opls_140      1 RES        0.060000
    1513 C            5.7512    32.9696    16.0386 opls_135      1 RES       -0.180000
    1514 C            6.5453    32.1099    15.0547 opls_157      1 RES        0.145000
    1515 O            6.0186    30.8363    14.7570 opls_154      1 RES       -0.683000
    1516 H            5.0911    30.9282    14.6010 opls_155      1 RES        0.418000
    1517 H            7.5475    32.0562    15.4800 opls_140      1 RES        0.060000
    1518 H            6.6831    32.5643    14.0736 opls_140      1 RES        0.060000
    1519 H            4.9640    33.3750    15.4029 opls_140      1 RES        0.060000
    1520 H            6.3522    33.8052    16.3972 opls_140      1 RES        0.060000
    1521 H            5.3475    32.4758    16.9225 opls_140      1 RES        0.060000
    1522 C            3.0779     3.8036    30.2720 opls_135      1 RES       -0.180000
    1523 C            2.8456     2.6246    31.2175 opls_157      1 RES        0.145000
    1524 O            2.6165     2.9351    32.5737 opls_154      1 RES       -0.683000
    1525 H            2.0003     3.6504    32.6141 opls_155      1 RES        0.418000
    1526 H            3.7158     1.9829    31.0792 opls_140      1 RES        0.060000
    1527 H            1.9933     1.9992    30.9518 opls_140      1 RES        0.060000
    1528 H            2.0613     4.1497    30.0856 opls_140      1 RES        0.060000
    1529 H            3.4928     3.4643    29.3229 opls_140      1 RES        0.060000
    1530 H            3.7244     4.6077    30.6237 opls_140      1 RES        0.060000
    1531 C           31.7112    26.9616    25.3366 opls_135      1 RES       -0.180000
    1532 C           30.5176    27.3431    26.2128 opls_157      1 RES        0.145000
    1533 O           29.8229    28.5187    25.8612 opls_154      1 RES       -0.683000
    1534 H           29.6900    28.5158    24.9256 opls_155      1 RES        0.418000
    1535 H           30.9192    27.3847    27.2253 opls_140      1 RES        0.060000
    1536 H           29.7338    26.5869    26.2550 opls_140      1 RES        0.060000
    1537 H           31.2250    26.4929    24.4811 opls_140      1 RES        0.060000
    1538 H           32.3256    26.2054    25.8252 opls_140      1 RES        0.060000
    1539 H           32.3863    27.7620    25.0339 opls_140      1 RES        0.060000
    1540 C           29.7537    33.3069    12.0704 opls_135      1 RES       -0.180000
    1541 C           31.2163    33.3653    11.6284 opls_157      1 RES        0.145000
    1542 O           31.9963    32.2146    11.8640 opls_154      1 RES       -0.683000
    1543 H           31.4947    31.4578    11.6022 opls_155      1 RES        0.418000
    1544 H           31.6198    34.2494    12.1221 opls_140      1 RES        0.060000
    1545 H           31.3547    33.5534    10.5637 opls_140      1 RES        0.060000
    1546 H           29.2915    32.7505    11.2550 opls_140      1 RES        0.060000
    1547 H           29.3123    34.3034    12.0849 opls_140      1 RES        0.060000
    1548 H           29.5414    32.8592    13.0412 opls_140      1 RES        0.060000
    1549 C           33.4614    32.3378    19.2747 opls_135      1 RES       -0.180000
    1550 C           33.3099    31.6807    20.6469 opls_157      1 RES        0.145000
    1551 O           32.1975    32.0739    21.4189 opls_154      1 RES       -0.683000
    1552 H           31.4369    32.0860    20.8582 opls_155      1 RES        0.418000
    1553 H           34.2560    31.8738    21.1526 opls_140      1 RES        0.060000
    1554 H           33.2273    30.5943    20.6160 opls_140      1 RES        0.060000
    1555 H           32.7596    31.7645    18.6689 opls_140      1 RES        0.060000
    1556 H           34.4607    32.1714    18.8726 opls_140      1 RES        0.060000
    1557 H           33.2752    33.4098    19.2095 opls_140      1 RES        0.060000
    1558 C            2.7489    22.3366    14.8158 opls_135      1 RES       -0.180000
    1559 C            2.7914    23.8514    14.6130 opls_157      1 RES        0.145000
    1560 O            2.6612    24.6497    15.7680 opls_154      1 RES       -0.683000
    1561 H            3.2150    24.2874    16.4426 opls_155      1 RES        0.418000
    1562 H            2.0130    24.0544    13.8774 opls_140      1 RES        0.060000
    1563 H            3.7103    24.2158    14.1537 opls_140      1 RES        0.060000
    1564 H            3.7633    22.1234    15.1532 opls_140      1 RES        0.060000
    1565 H            2.5993    21.8217    13.8668 opls_140      1 RES        0.060000
    1566 H            1.9997    21.9442    15.5033 opls_140      1 RES        0.060000
    1567 C            4.5315    30.7215    18.9526 opls_135      1 RES       -0.180000
    1568 C            4.8397    29.9063    17.6962 opls_157      1 RES        0.145000
    1569 O            5.9152    30.3506    16.9001 opls_154      1 RES       -0.683000
    1570 H            6.6398    30.5584    17.4700 opls_155      1 RES        0.418000
    1571 H            3.8990    29.8786    17.1463 opls_140      1 RES        0.060000
    1572 H            5.0803    28.8608    17.8891 opls_140      1 RES        0.060000
    1573 H            5.2824    30.3543    19.6521 opls_140      1 RES        0.060000
    1574 H            3.5507    30.4635    19.3521 opls_140      1 RES        0.060000
    1575 H            4.5543    31.8075    18.8629 opls_140      1 RES        0.060000
    1576 C            9.1976     5.5645    31.4237 opls_135      1 RES       -0.180000
    1577 C            8.4287     6.2228    30.2777 opls_157      1 RES        0.145000
    1578 O            9.0257     6.1709    29.0013 opls_154      1 RES       -0.683000
    1579 H            9.3468     5.2935    28.8597 opls_155      1 RES        0.418000
    1580 H            8.2528     7.2448    30.6131 opls_140      1 RES        0.060000
    1581 H            7.4341     5.8094    30.1107 opls_140      1 RES        0.060000
    1582 H            8.9556     4.5109    31.2847 opls_140      1 RES        0.060000
    1583 H            8.7959     5.8734    32.3887 opls_140      1 RES        0.060000
    1584 H           10.2736     5.7335    31.4669 opls_140      1 RES        0.060000
    1585 C            6.6956     6.7719     5.0581 opls_135      1 RES       -0.180000
    1586 C            7.0979     7.8577     4.0596 opls_157      1 RES        0.145000
    1587 O            6.8574     7.5867     2.6970 opls_154      1 RES       -0.683000
    1588 H            5.9884     7.2242     2.6157 opls_155      1 RES        0.418000
    1589 H            8.1513     8.0474     4.2661 opls_140      1 RES        0.060000
    1590 H            6.6057     8.8170     4.2194 opls_140      1 RES        0.060000
    1591 H            5.6218     6.9346     5.1510 opls_140      1 RES        0.060000
    1592 H            7.1453     6.9556     6.0338 opls_140      1 RES        0.060000
    1593 H            6.9305     5.7399     4.7974 opls_140      1 RES        0.060000
    1594 C           33.6951     7.8809     5.2301 opls_135      1 RES       -0.180000
    1595 C           33.6469     8.1737     6.7300 opls_157      1 RES        0.145000
    1596 O           33.6866     9.5302     7.1128 opls_154      1 RES       -0.683000
    1597 H           33.0925    10.0123     6.5582 opls_155      1 RES        0.418000
    1598 H           34.4713     7.5985     7.1513 opls_140      1 RES        0.060000
    1599 H           32.7570     7.7934     7.2317 opls_140      1 RES        0.060000
    1600 H           32.6628     8.0605     4.9297 opls_140      1 RES        0.060000
    1601 H           33.9165     6.8295     5.0466 opls_140      1 RES        0.060000
    1602 H           34.4003     8.4559     4.6300 opls_140      1 RES        0.060000
    1603 C           31.9657    30.5021     2.8353 opls_135      1 RES       -0.180000
    1604 C           32.2999    31.4729     3.9683 opls_157      1 RES        0.145000
    1605 O           32.7337    30.9041     5.1834 opls_154      1 RES       -0.683000
    1606 H           33.3693    30.2332     4.9864 opls_155      1 RES        0.418000
    1607 H           31.4009    32.0772     4.0896 opls_140      1 RES        0.060000
    1608 H           33.0859    32.1885     3.7270 opls_140      1 RES        0.060000
    1609 H           32.9536    30.2620     2.4423 opls_140      1 RES        0.060000
    1610 H           31.4069    31.0045     2.0456 opls_140      1 RES        0.060000
    1611 H           31.4009    29.6064     3.0936 opls_140      1 RES        0.060000
    1612 C           31.8402    27.6121     6.6501 opls_135      1 RES       -0.180000
    1613 C           30.8090    27.8661     7.7500 opls_157      1 RES        0.145000
    1614 O           30.4719    26.7688     8.5688 opls_154      1 RES       -0.683000
    1615 H           31.2700    26.3279     8.8169 opls_155      1 RES        0.418000
    1616 H           29.9442    28.2776     7.2294 opls_140      1 RES        0.060000
    1617 H           31.0972    28.6377     8.4640 opls_140      1 RES        0.060000
    1618 H           32.7785    27.6566     7.2029 opls_140      1 RES        0.060000
    1619 H           31.8428    28.4258     5.9248 opls_140      1 RES        0.060000
    1620 H           31.7465    26.6881     6.0795 opls_140      1 RES        0.060000
    1621 C           18.3438    30.7882    28.7165 opls_135      1 RES       -0.180000
    1622 C           17.5041    29.6117    28.2178 opls_157      1 RES        0.145000
    1623 O           16.1062    29.7947    28.1958 opls_154      1 RES       -0.683000
    1624 H           15.9243    30.6446    27.8248 opls_155      1 RES        0.418000
    1625 H           17.8036    28.7720    28.8449 opls_140      1 RES        0.060000
    1626 H           17.7358    29.2961    27.2006 opls_140      1 RES        0.060000
    1627 H           18.3792    31.4315    27.8373 opls_140      1 RES        0.060000
    1628 H           19.3630    30.4716    28.9379 opls_140      1 RES        0.060000
    1629 H           17.9859    31.3210    29.5975 opls_140      1 RES        0.060000
    1630 C           15.0974    25.1172    17.6175 opls_135      1 RES       -0.180000
    1631 C           15.5155    26.5004    17.1176 opls_157      1 RES        0.145000
    1632 O           16.7057    27.0347    17.6523 opls_154      1 RES       -0.683000
    1633 H           17.3632    26.3560    17.6487 opls_155      1 RES        0.418000
    1634 H           14.6514    27.1368    17.3086 opls_140      1 RES        0.060000
    1635 H           15.6715    26.5584    16.0404 opls_140      1 RES        0.060000
    1636 H           15.7327    24.4591    17.0247 opls_140      1 RES        0.060000
    1637 H           14.0613    24.9056    17.3532 opls_140      1 RES        0.060000
    1638 H           15.1915    24.9212    18.6856 opls_140      1 RES        0.060000
    1639 C           11.3186    12.7025    27.3921 opls_135      1 RES       -0.180000
    1640 C           12.0168    13.8706    26.6950 opls_157      1 RES        0.145000
    1641 O           12.6446    13.5906    25.4639 opls_154      1 RES       -0.683000
    1642 H           12.0561    13.0650    24.9438 opls_155      1 RES        0.418000
    1643 H           12.7130    14.2603    27.4376 opls_140      1 RES        0.060000
    1644 H           11.3606    14.7090    26.4614 opls_140      1 RES        0.060000
    1645 H           10.3736    12.6467    26.8517 opls_140      1 RES        0.060000
    1646 H           11.0939    12.9479    28.4300 opls_140      1 RES        0.060000
    1647 H           11.8379    11.7443    27.4051 opls_140      1 RES        0.060000
    1648 C           17.6602    22.4793    19.5457 opls_135      1 RES       -0.180000
    1649 C           16.3270    22.3548    20.2841 opls_157      1 RES        0.145000
    1650 O           15.7348    21.0756    20.3121 opls_154      1 RES       -0.683000
    1651 H           16.4054    20.4429    20.5195 opls_155      1 RES        0.418000
    1652 H           15.6825    23.1013    19.8199 opls_140      1 RES        0.060000
    1653 H           16.3697    22.6389    21.3355 opls_140      1 RES        0.060000
    1654 H           18.3660    22.1003    20.2847 opls_140      1 RES        0.060000
    1655 H           17.9043    23.5250    19.3587 opls_140      1 RES        0.060000
    1656 H           17.7536    21.9630    18.5903 opls_140      1 RES        0.060000
    1657 C           20.9042    11.9111    27.8684 opls_135      1 RES       -0.180000
    1658 C           20.0036    10.9712    28.6704 opls_157      1 RES        0.145000
    1659 O           20.1589    10.9867    30.0718 opls_154      1 RES       -0.683000
    1660 H           20.2066    11.8871    30.3548 opls_155      1 RES        0.418000
    1661 H           20.1824     9.9845    28.2432 opls_140      1 RES        0.060000
    1662 H           18.9368    11.1462    28.5304 opls_140      1 RES        0.060000
    1663 H           20.3909    12.8665    27.9772 opls_140      1 RES        0.060000
    1664 H           20.8961    11.6481    26.8106 opls_140      1 RES        0.060000
    1665 H           21.9513    11.9749    28.1643 opls_140      1 RES        0.060000
    1666 C            4.7195    12.8145    20.6175 opls_135      1 RES       -0.180000
    1667 C            5.3689    11.4315    20.6767 opls_157      1 RES        0.145000
    1668 O            4.9048    10.5555    21.6794 opls_154      1 RES       -0.683000
    1669 H            3.9606    10.5913    21.6906 opls_155      1 RES        0.418000
    1670 H            6.4373    11.6305    20.7604 opls_140      1 RES        0.060000
    1671 H            5.2650    10.8489    19.7614 opls_140      1 RES        0.060000
    1672 H            3.7877    12.6062    20.0916 opls_140      1 RES        0.060000
    1673 H            5.3062    13.4928    19.9981 opls_140      1 RES        0.060000
    1674 H            4.5477    13.3280    21.5635 opls_140      1 RES        0.060000
    1675 C           28.1059     8.9931    17.7715 opls_135      1 RES       -0.180000
    1676 C           28.8009     8.1029    18.8022 opls_157      1 RES        0.145000
    1677 O           28.6149     8.4394    20.1588 opls_154      1 RES       -0.683000
    1678 H           27.6985     8.6256    20.2951 opls_155      1 RES        0.418000
    1679 H           29.8515     8.1113    18.5121 opls_140      1 RES        0.060000
    1680 H           28.5080     7.0540    18.7574 opls_140      1 RES        0.060000
    1681 H           27.0855     8.6103    17.7911 opls_140      1 RES        0.060000
    1682 H           28.5075     8.8180    16.7734 opls_140      1 RES        0.060000
    1683 H           28.1406    10.0702    17.9355 opls_140      1 RES        0.060000
    1684 C           29.7718    29.3375    16.9428 opls_135      1 RES       -0.180000
    1685 C           28.8018    28.2303    17.3563 opls_157      1 RES        0.145000
    1686 O           28.0421    28.4557    18.5225 opls_154      1 RES       -0.683000
    1687 H           27.7043    29.3376    18.4904 opls_155      1 RES        0.418000
    1688 H           29.4185    27.3344    17.4285 opls_140      1 RES        0.060000
    1689 H           28.0496    27.9907    16.6046 opls_140      1 RES        0.060000
    1690 H           29.1091    30.0481    16.4489 opls_140      1 RES        0.060000
    1691 H           30.4822    28.9742    16.2003 opls_140      1 RES        0.060000
    1692 H           30.3598    29.8081    17.7308 opls_140      1 RES        0.060000
    1693 C            6.0076    20.8344    20.0606 opls_135      1 RES       -0.180000
    1694 C            5.5741    21.6152    21.3016 opls_157      1 RES        0.145000
    1695 O            4.4861    22.4987    21.1469 opls_154      1 RES       -0.683000
    1696 H            3.8110    22.0546    20.6570 opls_155      1 RES        0.418000
    1697 H            6.4776    22.1234    21.6388 opls_140      1 RES        0.060000
    1698 H            5.2763    20.9892    22.1427 opls_140      1 RES        0.060000
    1699 H            5.2757    20.0271    20.0323 opls_140      1 RES        0.060000
    1700 H            6.9906    20.3867    20.2071 opls_140      1 RES        0.060000
    1701 H            6.0517    21.3781    19.1169 opls_140      1 RES        0.060000
    1702 C           30.9669    13.5645     2.9304 opls_135      1 RES       -0.180000
    1703 C           29.7820    13.4539     3.8905 opls_157      1 RES        0.145000
    1704 O           30.0864    13.3276     5.2614 opls_154      1 RES       -0.683000
    1705 H           30.7594    13.9557     5.4748 opls_155      1 RES        0.418000
    1706 H           29.1987    12.6131     3.5150 opls_140      1 RES        0.060000
    1707 H           29.0993    14.3030     3.8583 opls_140      1 RES        0.060000
    1708 H           31.2432    14.6142     3.0297 opls_140      1 RES        0.060000
    1709 H           30.6491    13.4003     1.9008 opls_140      1 RES        0.060000
    1710 H           31.8148    12.9016     3.1030 opls_140      1 RES        0.060000
    1711 C            5.1911    13.9539     3.0235 opls_135      1 RES       -0.180000
    1712 C            3.7473    13.5972     3.3787 opls_157      1 RES        0.145000
    1713 O            2.7441    14.4668     2.9040 opls_154      1 RES       -0.683000
    1714 H            2.9304    14.6688     1.9998 opls_155      1 RES        0.418000
    1715 H            3.7426    13.5107     4.4653 opls_140      1 RES        0.060000
    1716 H            3.4270    12.6189     3.0202 opls_140      1 RES        0.060000
    1717 H            5.2708    13.5879     1.9999 opls_140      1 RES        0.060000
    1718 H            5.8929    13.3867     3.6349 opls_140      1 RES        0.060000
    1719 H            5.4831    15.0008     3.1060 opls_140      1 RES        0.060000
    1720 C           28.7454    21.9256    11.8563 opls_135      1 RES       -0.180000
    1721 C           28.9957    22.6046    13.2032 opls_157      1 RES        0.145000
    1722 O           30.3316    22.9381    13.5067 opls_154      1 RES       -0.683000
    1723 H           30.7187    23.3367    12.7423 opls_155      1 RES        0.418000
    1724 H           28.5581    21.9300    13.9391 opls_140      1 RES        0.060000
    1725 H           28.4618    23.5456    13.3359 opls_140      1 RES        0.060000
    1726 H           28.7559    22.7718    11.1693 opls_140      1 RES        0.060000
    1727 H           27.7499    21.4831    11.8234 opls_140      1 RES        0.060000
    1728 H           29.4424    21.1448    11.5519 opls_140      1 RES        0.060000
    1729 C           31.9887     8.6104    13.9118 opls_135      1 RES       -0.180000
    1730 C           32.6344     7.2304    13.7832 opls_157      1 RES        0.145000
    1731 O           31.8970     6.1364    14.2807 opls_154      1 RES       -0.683000
    1732 H           31.0024     6.2248    13.9892 opls_155      1 RES        0.418000
    1733 H           33.6052     7.3325    14.2682 opls_140      1 RES        0.060000
    1734 H           32.8644     6.9378    12.7587 opls_140      1 RES        0.060000
    1735 H           31.2945     8.6162    13.0715 opls_140      1 RES        0.060000
    1736 H           32.7216     9.3993    13.7428 opls_140      1 RES        0.060000
    1737 H           31.4915     8.8449    14.8530 opls_140      1 RES        0.060000
    1738 C           17.5929     9.7563    13.2281 opls_135      1 RES       -0.180000
    1739 C           17.7324     9.4968    14.7285 opls_157      1 RES        0.145000
    1740 O           18.7211    10.2354    15.4104 opls_154      1 RES       -0.683000
    1741 H           18.6643    11.1360    15.1302 opls_155      1 RES        0.418000
    1742 H           17.8868     8.4209    14.8104 opls_140      1 RES        0.060000
    1743 H           16.8268     9.6927    15.3025 opls_140      1 RES        0.060000
    1744 H           17.0076    10.6756    13.2095 opls_140      1 RES        0.060000
    1745 H           17.0000     8.9751    12.7524 opls_140      1 RES        0.060000
    1746 H           18.5112     9.8458    12.6479 opls_140      1 RES        0.060000
    1747 C           12.7651     6.0815    11.2296 opls_135      1 RES       -0.180000
    1748 C           11.6643     6.5314    12.1906 opls_157      1 RES        0.145000
    1749 O           11.8464     6.2202    13.5537 opls_154      1 RES       -0.683000
    1750 H           12.7379     6.4279    13.7886 opls_155      1 RES        0.418000
    1751 H           10.7490     6.1008    11.7845 opls_140      1 RES        0.060000
    1752 H           11.4874     7.6070    12.1962 opls_140      1 RES        0.060000
    1753 H           13.5200     6.8553    11.3696 opls_140      1 RES        0.060000
    1754 H           12.4234     6.1337    10.1958 opls_140      1 RES        0.060000
    1755 H           13.1752     5.0815    11.3708 opls_140      1 RES        0.060000
    1756 C           19.5355    25.5981    30.6106 opls_135      1 RES       -0.180000
    1757 C           20.0960    25.1474    29.2613 opls_157      1 RES        0.145000
    1758 O           20.0139    26.0719    28.1999 opls_154      1 RES       -0.683000
    1759 H           20.2867    26.9175    28.5215 opls_155      1 RES        0.418000
    1760 H           19.5750    24.2154    29.0422 opls_140      1 RES        0.060000
    1761 H           21.1519    24.8776    29.2831 opls_140      1 RES        0.060000
    1762 H           20.3470    26.2126    31.0005 opls_140      1 RES        0.060000
    1763 H           19.4096    24.7488    31.2821 opls_140      1 RES        0.060000
    1764 H           18.5857    26.1328    30.6049 opls_140      1 RES        0.060000
    1765 C           11.5621    29.1641     3.8783 opls_135      1 RES       -0.180000
    1766 C           10.8728    30.2153     4.7487 opls_157      1 RES        0.145000
    1767 O           10.4942    29.8146     6.0466 opls_154      1 RES       -0.683000
    1768 H           11.2137    29.3380     6.4314 opls_155      1 RES        0.418000
    1769 H           10.0244    30.5542     4.1542 opls_140      1 RES        0.060000
    1770 H           11.4673    31.1122     4.9223 opls_140      1 RES        0.060000
    1771 H           12.5852    29.1933     4.2532 opls_140      1 RES        0.060000
    1772 H           11.5817    29.4766     2.8342 opls_140      1 RES        0.060000
    1773 H           11.1513    28.1545     3.8925 opls_140      1 RES        0.060000
    1774 C           33.4636    13.9711     4.9007 opls_135      1 RES       -0.180000
    1775 C           33.4931    15.0941     5.9378 opls_157      1 RES        0.145000
    1776 O           33.4480    14.7071     7.2929 opls_154      1 RES       -0.683000
    1777 H           34.0488    13.9881     7.4160 opls_155      1 RES        0.418000
    1778 H           32.6636    15.7461     5.6639 opls_140      1 RES        0.060000
    1779 H           34.3767    15.7300     5.8838 opls_140      1 RES        0.060000
    1780 H           34.4995    13.6318     4.9029 opls_140      1 RES        0.060000
    1781 H           33.2449    14.3647     3.9081 opls_140      1 RES        0.060000
    1782 H           32.7657    13.1511     5.0701 opls_140      1 RES        0.060000
    1783 C            2.7763    31.9134    24.5260 opls_135      1 RES       -0.180000
    1784 C            3.8882    30.9880    24.0311 opls_157      1 RES        0.145000
    1785 O            5.0962    31.0029    24.7582 opls_154      1 RES       -0.683000
    1786 H            4.8879    30.9755    25.6796 opls_155      1 RES        0.418000
    1787 H            4.0293    31.2593    22.9849 opls_140      1 RES        0.060000
    1788 H            3.6160    29.9327    24.0108 opls_140      1 RES        0.060000
    1789 H            2.3570    31.3428    25.3547 opls_140      1 RES        0.060000
    1790 H            1.9979    32.0237    23.7709 opls_140      1 RES        0.060000
    1791 H            3.0609    32.9214    24.8278 opls_140      1 RES        0.060000
    1792 C           19.1628    23.4530     4.2546 opls_135      1 RES       -0.180000
    1793 C           19.4038    24.3517     3.0413 opls_157      1 RES        0.145000
    1794 O           18.4562    24.2783     1.9997 opls_154      1 RES       -0.683000
    1795 H           17.5926    24.2908     2.3831 opls_155      1 RES        0.418000
    1796 H           20.4102    24.1008     2.7062 opls_140      1 RES        0.060000
    1797 H           19.4449    25.4158     3.2738 opls_140      1 RES        0.060000
    1798 H           18.4148    24.0176     4.8112 opls_140      1 RES        0.060000
    1799 H           20.0578    23.3874     4.8731 opls_140      1 RES        0.060000
    1800 H           18.8418    22.4290     4.0634 opls_140      1 RES        0.060000
    1801 C           33.6166     7.5854    24.7103 opls_135      1 RES       -0.180000
    1802 C           33.5150     7.5115    23.1865 opls_157      1 RES        0.145000
    1803 O           32.8751     8.5893    22.5406 opls_154      1 RES       -0.683000
    1804 H           33.2000     9.3941    22.9145 opls_155      1 RES        0.418000
    1805 H           33.0260     6.5579    22.9873 opls_140      1 RES        0.060000
    1806 H           34.4761     7.4434    22.6768 opls_140      1 RES        0.060000
    1807 H           34.4657     8.2544    24.8498 opls_140      1 RES        0.060000
    1808 H           33.8852     6.6156    25.1291 opls_140      1 RES        0.060000
    1809 H           32.7358     7.9255    25.2550 opls_140      1 RES        0.060000
    1810 C           30.8311     5.5384    10.6603 opls_135      1 RES       -0.180000
    1811 C           31.4509     4.3646    11.4191 opls_157      1 RES        0.145000
    1812 O           32.8575     4.2676    11.3979 opls_154      1 RES       -0.683000
    1813 H           33.2163     5.1265    11.5609 opls_155      1 RES        0.418000
    1814 H           30.9669     3.4802    11.0046 opls_140      1 RES        0.060000
    1815 H           31.2100     4.3416    12.4819 opls_140      1 RES        0.060000
    1816 H           30.9606     6.3593    11.3656 opls_140      1 RES        0.060000
    1817 H           29.7610     5.3876    10.5186 opls_140      1 RES        0.060000
    1818 H           31.2439     5.7746     9.6795 opls_140      1 RES        0.060000
    1819 C           28.0351    13.0628    15.8620 opls_135      1 RES       -0.180000
    1820 C           26.8021    13.6829    15.2040 opls_157      1 RES        0.145000
    1821 O           26.9927    14.2906    13.9460 opls_154      1 RES       -0.683000
    1822 H           27.5231    13.7153    13.4162 opls_155      1 RES        0.418000
    1823 H           26.4119    14.3786    15.9469 opls_140      1 RES        0.060000
    1824 H           25.9883    12.9798    15.0266 opls_140      1 RES        0.060000
    1825 H           28.1140    12.1076    15.3429 opls_140      1 RES        0.060000
    1826 H           27.8495    12.8541    16.9156 opls_140      1 RES        0.060000
    1827 H           28.9651    13.6294    15.8169 opls_140      1 RES        0.060000
    1828 C           26.2499    29.2125     9.8196 opls_135      1 RES       -0.180000
    1829 C           25.4557    29.2262     8.5131 opls_157      1 RES        0.145000
    1830 O           24.0532    29.1296     8.6225 opls_154      1 RES       -0.683000
    1831 H           23.7685    29.7138     9.3086 opls_155      1 RES        0.418000
    1832 H           25.8832    28.4174     7.9205 opls_140      1 RES        0.060000
    1833 H           25.6030    30.1217     7.9094 opls_140      1 RES        0.060000
    1834 H           26.1432    30.2419    10.1618 opls_140      1 RES        0.060000
    1835 H           27.3080    29.0336     9.6290 opls_140      1 RES        0.060000
    1836 H           25.9464    28.4957    10.5826 opls_140      1 RES        0.060000
    1837 C           27.1852    27.7157    21.6502 opls_135      1 RES       -0.180000
    1838 C           27.0118    27.8287    23.1652 opls_157      1 RES        0.145000
    1839 O           26.3687    28.9882    23.6450 opls_154      1 RES       -0.683000
    1840 H           25.6072    29.1483    23.1088 opls_155      1 RES        0.418000
    1841 H           28.0179    27.7142    23.5685 opls_140      1 RES        0.060000
    1842 H           26.4386    27.0162    23.6117 opls_140      1 RES        0.060000
    1843 H           26.1994    27.3758    21.3329 opls_140      1 RES        0.060000
    1844 H           27.9029    26.9348    21.3987 opls_140      1 RES        0.060000
    1845 H           27.5000    28.6110    21.1141 opls_140      1 RES        0.060000
    1846 C            9.1745    33.4450    20.7279 opls_135      1 RES       -0.180000
    1847 C            9.5667    31.9832    20.5105 opls_157      1 RES        0.145000
    1848 O           10.3019    31.3638    21.5419 opls_154      1 RES       -0.683000
    1849 H            9.8994    31.5860    22.3675 opls_155      1 RES        0.418000
    1850 H           10.0990    31.9777    19.5593 opls_140      1 RES        0.060000
    1851 H            8.7219    31.3109    20.3607 opls_140      1 RES        0.060000
    1852 H            8.3044    33.3531    21.3779 opls_140      1 RES        0.060000
    1853 H            8.8454    33.9018    19.7946 opls_140      1 RES        0.060000
    1854 H            9.9297    34.1088    21.1489 opls_140      1 RES        0.060000
    1855 C           21.9727     4.7385    19.3749 opls_135      1 RES       -0.180000
    1856 C           21.3861     5.5960    18.2531 opls_157      1 RES        0.145000
    1857 O           20.8889     6.8639    18.6181 opls_154      1 RES       -0.683000
    1858 H           21.5162     7.2739    19.1938 opls_155      1 RES        0.418000
    1859 H           20.6238     4.9671    17.7933 opls_140      1 RES        0.060000
    1860 H           22.0861     5.8190    17.4479 opls_140      1 RES        0.060000
    1861 H           22.9691     5.1651    19.4905 opls_140      1 RES        0.060000
    1862 H           22.0895     3.7039    19.0523 opls_140      1 RES        0.060000
    1863 H           21.4295     4.7097    20.3195 opls_140      1 RES        0.060000
    1864 C           16.0555    30.4194    22.0247 opls_135      1 RES       -0.180000
    1865 C           14.5754    30.7998    21.9747 opls_157      1 RES        0.145000
    1866 O           14.2413    31.9507    21.2318 opls_154      1 RES       -0.683000
    1867 H           14.7084    31.9196    20.4109 opls_155      1 RES        0.418000
    1868 H           14.2737    30.8771    23.0192 opls_140      1 RES        0.060000
    1869 H           13.9294    30.0289    21.5545 opls_140      1 RES        0.060000
    1870 H           16.1942    29.9177    21.0671 opls_140      1 RES        0.060000
    1871 H           16.2425    29.6897    22.8125 opls_140      1 RES        0.060000
    1872 H           16.7749    31.2252    22.1709 opls_140      1 RES        0.060000
    1873 C           25.7879    33.2040     3.2208 opls_135      1 RES       -0.180000
    1874 C           25.0771    32.7081     4.4804 opls_157      1 RES        0.145000
    1875 O           25.8348    32.6870     5.6693 opls_154      1 RES       -0.683000
    1876 H           26.3100    33.5013     5.7325 opls_155      1 RES        0.418000
    1877 H           24.6952    31.7228     4.2132 opls_140      1 RES        0.060000
    1878 H           24.1931    33.2852     4.7518 opls_140      1 RES        0.060000
    1879 H           25.7408    34.2860     3.3437 opls_140      1 RES        0.060000
    1880 H           25.2198    32.9459     2.3271 opls_140      1 RES        0.060000
    1881 H           26.8073    32.8569     3.0515 opls_140      1 RES        0.060000
    1882 C            3.0367    10.2214    31.9903 opls_135      1 RES       -0.180000
    1883 C            2.8754     9.3354    33.2259 opls_157      1 RES        0.145000
    1884 O            2.6994     9.9944    34.4600 opls_154      1 RES       -0.683000
    1885 H            2.0685    10.6874    34.3387 opls_155      1 RES        0.418000
    1886 H            3.7538     8.6901    33.2208 opls_140      1 RES        0.060000
    1887 H            2.0276     8.6520    33.1789 opls_140      1 RES        0.060000
    1888 H            2.0046    10.4934    31.7688 opls_140      1 RES        0.060000
    1889 H            3.4170     9.6456    31.1465 opls_140      1 RES        0.060000
    1890 H            3.6784    11.0976    32.0826 opls_140      1 RES        0.060000
    1891 C           17.8741    14.3212    15.6360 opls_135      1 RES       -0.180000
    1892 C           18.0587    15.1190    14.3448 opls_157      1 RES        0.145000
    1893 O           17.8154    14.4347    13.1362 opls_154      1 RES       -0.683000
    1894 H           17.0142    13.9426    13.2304 opls_155      1 RES        0.418000
    1895 H           19.0743    15.5104    14.4038 opls_140      1 RES        0.060000
    1896 H           17.4240    16.0020    14.2698 opls_140      1 RES        0.060000
    1897 H           16.7922    14.3468    15.7668 opls_140      1 RES        0.060000
    1898 H           18.3236    14.8416    16.4817 opls_140      1 RES        0.060000
    1899 H           18.2631    13.3032    15.6555 opls_140      1 RES        0.060000
    1900 C            2.6061    10.1029    13.7063 opls_135      1 RES       -0.180000
    1901 C            3.5617    10.8230    12.7544 opls_157      1 RES        0.145000
    1902 O            3.0618    11.1416    11.4751 opls_154      1 RES       -0.683000
    1903 H            2.1960    11.5062    11.5775 opls_155      1 RES        0.418000
    1904 H            4.4425    10.1825    12.7090 opls_140      1 RES        0.060000
    1905 H            3.9307    11.7779    13.1287 opls_140      1 RES        0.060000
    1906 H            1.9957    10.9245    14.0810 opls_140      1 RES        0.060000
    1907 H            3.1471     9.6783    14.5520 opls_140      1 RES        0.060000
    1908 H            1.9978     9.2990    13.2918 opls_140      1 RES        0.060000
    1909 C            7.5348     9.4627    19.2334 opls_135      1 RES       -0.180000
    1910 C            8.4605     9.0308    20.3710 opls_157      1 RES        0.145000
    1911 O            8.4484     9.8263    21.5351 opls_154      1 RES       -0.683000
    1912 H            7.5491    10.0145    21.7563 opls_155      1 RES        0.418000
    1913 H            9.4497     8.9736    19.9168 opls_140      1 RES        0.060000
    1914 H            8.2682     8.0260    20.7472 opls_140      1 RES        0.060000
    1915 H            6.5713     9.0746    19.5638 opls_140      1 RES        0.060000
    1916 H            7.7970     8.9549    18.3052 opls_140      1 RES        0.060000
    1917 H            7.4881    10.5270    19.0024 opls_140      1 RES        0.060000
    1918 C           20.2137    33.8525    30.9015 opls_135      1 RES       -0.180000
    1919 C           20.1613    32.9927    32.1648 opls_157      1 RES        0.145000
    1920 O           20.6067    33.5940    33.3598 opls_154      1 RES       -0.683000
    1921 H           20.2364    34.4619    33.4110 opls_155      1 RES        0.418000
    1922 H           20.7286    32.0965    31.9137 opls_140      1 RES        0.060000
    1923 H           19.1651    32.6299    32.4180 opls_140      1 RES        0.060000
    1924 H           19.3155    34.4616    31.0031 opls_140      1 RES        0.060000
    1925 H           20.0993    33.2380    30.0085 opls_140      1 RES        0.060000
    1926 H           21.1042    34.4618    30.7470 opls_140      1 RES        0.060000
    1927 C            5.0101    15.6569     6.6217 opls_135      1 RES       -0.180000
    1928 C            3.9165    16.5738     6.0730 opls_157      1 RES        0.145000
    1929 O            3.7820    16.6317     4.6706 opls_154      1 RES       -0.683000
    1930 H            3.8176    15.7498     4.3328 opls_155      1 RES        0.418000
    1931 H            4.1273    17.5494     6.5110 opls_140      1 RES        0.060000
    1932 H            2.9116    16.3262     6.4153 opls_140      1 RES        0.060000
    1933 H            4.5358    14.6772     6.5643 opls_140      1 RES        0.060000
    1934 H            5.2051    15.8707     7.6726 opls_140      1 RES        0.060000
    1935 H            5.9762    15.6724     6.1173 opls_140      1 RES        0.060000
    1936 C           15.6282     8.8715     2.6470 opls_135      1 RES       -0.180000
    1937 C           14.4830     9.3286     3.5512 opls_157      1 RES        0.145000
    1938 O           13.7471     8.3174     4.2025 opls_154      1 RES       -0.683000
    1939 H           14.3571     7.6903     4.5598 opls_155      1 RES        0.418000
    1940 H           13.8575     9.9520     2.9123 opls_140      1 RES        0.060000
    1941 H           14.7905     9.9846     4.3655 opls_140      1 RES        0.060000
    1942 H           16.4214     8.6718     3.3675 opls_140      1 RES        0.060000
    1943 H           15.9620     9.6844     2.0021 opls_140      1 RES        0.060000
    1944 H           15.4425     8.0162     1.9974 opls_140      1 RES        0.060000
    1945 C           21.8826    22.4019    32.8408 opls_135      1 RES       -0.180000
    1946 C           22.0598    22.9021    31.4068 opls_157      1 RES        0.145000
    1947 O           21.7164    22.0045    30.3752 opls_154      1 RES       -0.683000
    1948 H           20.8896    21.6029    30.5947 opls_155      1 RES        0.418000
    1949 H           23.1007    23.2208    31.3512 opls_140      1 RES        0.060000
    1950 H           21.4820    23.7955    31.1700 opls_140      1 RES        0.060000
    1951 H           20.8120    22.5340    32.9974 opls_140      1 RES        0.060000
    1952 H           22.4040    23.0499    33.5454 opls_140      1 RES        0.060000
    1953 H           22.2040    21.3836    33.0592 opls_140      1 RES        0.060000
    1954 C           18.6345     2.9466    13.6697 opls_135      1 RES       -0.180000
    1955 C           18.3174     2.9467    12.1739 opls_157      1 RES        0.145000
    1956 O           19.3752     3.2756    11.3015 opls_154      1 RES       -0.683000
    1957 H           20.1465     2.8064    11.5806 opls_155      1 RES        0.418000
    1958 H           17.4682     3.6221    12.0708 opls_140      1 RES        0.060000
    1959 H           17.9605     1.9902    11.7922 opls_140      1 RES        0.060000
    1960 H           19.1239     1.9812    13.7986 opls_140      1 RES        0.060000
    1961 H           17.7188     2.9366    14.2608 opls_140      1 RES        0.060000
    1962 H           19.2424     3.7662    14.0528 opls_140      1 RES        0.060000
    1963 C           17.4184    32.6048     2.7179 opls_135      1 RES       -0.180000
    1964 C           18.2592    31.3431     2.9159 opls_157      1 RES        0.145000
    1965 O           17.7384    30.3643     3.7870 opls_154      1 RES       -0.683000
    1966 H           16.8222    30.2473     3.5876 opls_155      1 RES        0.418000
    1967 H           19.2351    31.7079     3.2362 opls_140      1 RES        0.060000
    1968 H           18.4566    30.7886     1.9985 opls_140      1 RES        0.060000
    1969 H           16.6724    32.2705     1.9970 opls_140      1 RES        0.060000
    1970 H           18.0059    33.3930     2.2471 opls_140      1 RES        0.060000
    1971 H           16.9608    33.0456     3.6036 opls_140      1 RES        0.060000
    1972 C           33.6028    11.1581    25.0465 opls_135      1 RES       -0.180000
    1973 C           33.7726    11.5995    26.5005 opls_157      1 RES        0.145000
    1974 O           34.4609    12.8105    26.7192 opls_154      1 RES       -0.683000
    1975 H           34.1339    13.4520    26.1073 opls_155      1 RES        0.418000
    1976 H           34.2528    10.7536    26.9925 opls_140      1 RES        0.060000
    1977 H           32.8348    11.7388    27.0382 opls_140      1 RES        0.060000
    1978 H           32.7605    11.7681    24.7202 opls_140      1 RES        0.060000
    1979 H           33.2977    10.1131    24.9909 opls_140      1 RES        0.060000
    1980 H           34.4638    11.2655    24.3867 opls_140      1 RES        0.060000
    1981 C           20.8958    17.9980     8.0732 opls_135      1 RES       -0.180000
    1982 C           20.8219    17.7224     6.5711 opls_157      1 RES        0.145000
    1983 O           20.6342    18.8385     5.7301 opls_154      1 RES       -0.683000
    1984 H           21.2158    19.5262     6.0161 opls_155      1 RES        0.418000
    1985 H           20.0283    16.9829     6.4639 opls_140      1 RES        0.060000
    1986 H           21.7091    17.2403     6.1605 opls_140      1 RES        0.060000
    1987 H           21.9244    18.3388     8.1919 opls_140      1 RES        0.060000
    1988 H           20.7834    17.0758     8.6433 opls_140      1 RES        0.060000
    1989 H           20.1806    18.7084     8.4878 opls_140      1 RES        0.060000
    1990 C           16.7574    13.7546    31.3932 opls_135      1 RES       -0.180000
    1991 C           17.6765    12.7372    32.0700 opls_157      1 RES        0.145000
    1992 O           18.5151    13.2230    33.0941 opls_154      1 RES       -0.683000
    1993 H           18.0026    13.7844    33.6556 opls_155      1 RES        0.418000
    1994 H           18.2379    12.2843    31.2528 opls_140      1 RES        0.060000
    1995 H           17.1529    11.9060    32.5423 opls_140      1 RES        0.060000
    1996 H           15.9401    13.8351    32.1098 opls_140      1 RES        0.060000
    1997 H           16.3485    13.3522    30.4664 opls_140      1 RES        0.060000
    1998 H           17.1823    14.7280    31.1482 opls_140      1 RES        0.060000
    1999 C           24.9002    19.0004     5.1118 opls_135      1 RES       -0.180000
    2000 C           25.3094    20.2082     4.2682 opls_157      1 RES        0.145000
    2001 O           25.2142    20.0657     2.8687 opls_154      1 RES       -0.683000
    2002 H           24.3856    19.6579     2.6680 opls_155      1 RES        0.418000
    2003 H           26.3226    20.4434     4.5942 opls_140      1 RES        0.060000
    2004 H           24.7346    21.1116     4.4720 opls_140      1 RES        0.060000
    2005 H           23.8133    19.0825     5.1149 opls_140      1 RES        0.060000
    2006 H           25.2447    19.1103     6.1401 opls_140      1 RES        0.060000
    2007 H           25.2340    18.0187     4.7759 opls_140      1 RES        0.060000
    2008 C           15.4235    19.7798    23.2070 opls_135      1 RES       -0.180000
    2009 C           16.9347    19.6868    22.9941 opls_157      1 RES        0.145000
    2010 O           17.4019    18.5959    22.2326 opls_154      1 RES       -0.683000
    2011 H           16.8509    18.5094    21.4698 opls_155      1 RES        0.418000
    2012 H           17.3576    19.7042    23.9986 opls_140      1 RES        0.060000
    2013 H           17.3700    20.5518    22.4937 opls_140      1 RES        0.060000
    2014 H           15.0870    20.2129    22.2651 opls_140      1 RES        0.060000
    2015 H           15.1860    20.4870    24.0017 opls_140      1 RES        0.060000
    2016 H           14.8935    18.8572    23.4440 opls_140      1 RES        0.060000
    2017 C           26.3507    24.1402    23.3160 opls_135      1 RES       -0.180000
    2018 C           25.0744    24.4714    24.0900 opls_157      1 RES        0.145000
    2019 O           24.9985    24.0029    25.4178 opls_154      1 RES       -0.683000
    2020 H           25.8225    24.1839    25.8436 opls_155      1 RES        0.418000
    2021 H           24.2656    24.0890    23.4673 opls_140      1 RES        0.060000
    2022 H           24.8725    25.5384    24.1844 opls_140      1 RES        0.060000
    2023 H           27.0446    24.8942    23.6876 opls_140      1 RES        0.060000
    2024 H           26.2132    24.3125    22.2485 opls_140      1 RES        0.060000
    2025 H           26.7511    23.1316    23.4186 opls_140      1 RES        0.060000
    2026 C           25.0234     8.3906     3.4490 opls_135      1 RES       -0.180000
    2027 C           25.7116     9.6923     3.0369 opls_157      1 RES        0.145000
    2028 O           27.1095     9.7531     3.2107 opls_154      1 RES       -0.683000
    2029 H           27.4833     8.9459     2.8918 opls_155      1 RES        0.418000
    2030 H           25.1891    10.4703     3.5936 opls_140      1 RES        0.060000
    2031 H           25.5733     9.9592     1.9891 opls_140      1 RES        0.060000
    2032 H           25.2207     7.7473     2.5915 opls_140      1 RES        0.060000
    2033 H           23.9444     8.5275     3.5205 opls_140      1 RES        0.060000
    2034 H           25.3407     7.9311     4.3851 opls_140      1 RES        0.060000
    2035 C           22.7161    12.8470    31.2128 opls_135      1 RES       -0.180000
    2036 C           21.6957    13.1486    32.3110 opls_157      1 RES        0.145000
    2037 O           20.7025    12.1740    32.5386 opls_154      1 RES       -0.683000
    2038 H           21.1180    11.3254    32.5547 opls_155      1 RES        0.418000
    2039 H           21.2741    14.1163    32.0392 opls_140      1 RES        0.060000
    2040 H           22.1327    13.3023    33.2976 opls_140      1 RES        0.060000
    2041 H           23.4056    12.1733    31.7214 opls_140      1 RES        0.060000
    2042 H           23.2698    13.7454    30.9399 opls_140      1 RES        0.060000
    2043 H           22.3398    12.4199    30.2833 opls_140      1 RES        0.060000
    2044 C           15.0047     4.7858    32.6006 opls_135      1 RES       -0.180000
    2045 C           13.8066     3.8888    32.9131 opls_157      1 RES        0.145000
    2046 O           13.2820     3.9639    34.2198 opls_154      1 RES       -0.683000
    2047 H           13.2150     4.8753    34.4604 opls_155      1 RES        0.418000
    2048 H           14.1389     2.8831    32.6557 opls_140      1 RES        0.060000
    2049 H           12.9378     4.0658    32.2792 opls_140      1 RES        0.060000
    2050 H           14.5272     5.7490    32.4206 opls_140      1 RES        0.060000
    2051 H           15.4900     4.4772    31.6747 opls_140      1 RES        0.060000
    2052 H           15.7892     4.8542    33.3543 opls_140      1 RES        0.060000
    2053 C            8.6024    14.5860     2.9251 opls_135      1 RES       -0.180000
    2054 C            8.8278    16.0954     2.8313 opls_157      1 RES        0.145000
    2055 O            7.9498    16.8169     1.9967 opls_154      1 RES       -0.683000
    2056 H            7.0687    16.5203     2.1663 opls_155      1 RES        0.418000
    2057 H            9.8697    16.2017     2.5296 opls_140      1 RES        0.060000
    2058 H            8.7595    16.6180     3.7854 opls_140      1 RES        0.060000
    2059 H            7.7768    14.5226     3.6339 opls_140      1 RES        0.060000
    2060 H            9.4642    14.0918     3.3737 opls_140      1 RES        0.060000
    2061 H            8.3865    14.0534     1.9989 opls_140      1 RES        0.060000
    2062 C           22.9913    27.5441    31.9138 opls_135      1 RES       -0.180000
    2063 C           23.4651    26.5485    32.9732 opls_157      1 RES        0.145000
    2064 O           23.4188    26.9801    34.3147 opls_154      1 RES       -0.683000
    2065 H           22.5875    27.4050    34.4608 opls_155      1 RES        0.418000
    2066 H           24.4714    26.2695    32.6607 opls_140      1 RES        0.060000
    2067 H           22.9082    25.6116    32.9875 opls_140      1 RES        0.060000
    2068 H           21.9077    27.4425    31.9744 opls_140      1 RES        0.060000
    2069 H           23.2997    27.2272    30.9176 opls_140      1 RES        0.060000
    2070 H           23.3103    28.5806    32.0225 opls_140      1 RES        0.060000
    2071 C           16.7041    11.3752     5.6297 opls_135      1 RES       -0.180000
    2072 C           15.8528    12.6074     5.9374 opls_157      1 RES        0.145000
    2073 O           14.5759    12.6607     5.3417 opls_154      1 RES       -0.683000
    2074 H           14.1662    11.8151     5.4425 opls_155      1 RES        0.418000
    2075 H           16.4787    13.4540     5.6556 opls_140      1 RES        0.060000
    2076 H           15.6457    12.7548     6.9974 opls_140      1 RES        0.060000
    2077 H           16.2866    10.6339     6.3112 opls_140      1 RES        0.060000
    2078 H           17.7433    11.5402     5.9142 opls_140      1 RES        0.060000
    2079 H           16.7171    11.0201     4.5993 opls_140      1 RES        0.060000
    2080 C           26.1927     6.3498    24.2239 opls_135      1 RES       -0.180000
    2081 C           27.6816     6.6973    24.2397 opls_157      1 RES        0.145000
    2082 O           28.1977     7.2209    25.4429 opls_154      1 RES       -0.683000
    2083 H           27.8669     6.7002    26.1588 opls_155      1 RES        0.418000
    2084 H           27.8163     7.3775    23.3987 opls_140      1 RES        0.060000
    2085 H           28.3398     5.8554    24.0252 opls_140      1 RES        0.060000
    2086 H           26.1795     5.3813    24.7238 opls_140      1 RES        0.060000
    2087 H           25.8392     6.2020    23.2034 opls_140      1 RES        0.060000
    2088 H           25.5081     7.0585    24.6899 opls_140      1 RES        0.060000
    2089 C            2.6233    16.6511     9.0373 opls_135      1 RES       -0.180000
    2090 C            3.5469    17.5386     9.8722 opls_157      1 RES        0.145000
    2091 O            3.0215    18.7752    10.3000 opls_154      1 RES       -0.683000
    2092 H            2.1481    18.6282    10.6294 opls_155      1 RES        0.418000
    2093 H            4.4432    17.6560     9.2633 opls_140      1 RES        0.060000
    2094 H            3.8962    17.0770    10.7958 opls_140      1 RES        0.060000
    2095 H            1.9969    16.1913     9.8018 opls_140      1 RES        0.060000
    2096 H            3.1865    15.8569     8.5473 opls_140      1 RES        0.060000
    2097 H            2.0304    17.1353     8.2614 opls_140      1 RES        0.060000
    2098 C           33.6549    10.1702    20.2829 opls_135      1 RES       -0.180000
    2099 C           33.8732    11.0969    19.0864 opls_157      1 RES        0.145000
    2100 O           34.4607    10.5243    17.9397 opls_154      1 RES       -0.683000
    2101 H           34.0397     9.6947    17.7738 opls_155      1 RES        0.418000
    2102 H           34.4576    11.9275    19.4823 opls_140      1 RES        0.060000
    2103 H           32.9614    11.5555    18.7036 opls_140      1 RES        0.060000
    2104 H           32.7421     9.6454    20.0009 opls_140      1 RES        0.060000
    2105 H           33.4432    10.7441    21.1851 opls_140      1 RES        0.060000
    2106 H           34.4603     9.4806    20.5355 opls_140      1 RES        0.060000
    2107 C           10.5558    19.1772    22.2530 opls_135      1 RES       -0.180000
    2108 C           11.3809    18.5223    21.1448 opls_157      1 RES        0.145000
    2109 O           10.8736    18.6227    19.8330 opls_154      1 RES       -0.683000
    2110 H           10.5890    19.5128    19.6925 opls_155      1 RES        0.418000
    2111 H           11.5033    17.4876    21.4651 opls_140      1 RES        0.060000
    2112 H           12.3963    18.9082    21.0555 opls_140      1 RES        0.060000
    2113 H           10.8378    20.2257    22.1575 opls_140      1 RES        0.060000
    2114 H           10.8818    18.8334    23.2347 opls_140      1 RES        0.060000
    2115 H            9.4749    19.0410    22.2196 opls_140      1 RES        0.060000
    2116 C           33.7815    14.0982    23.3160 opls_135      1 RES       -0.180000
    2117 C           32.9591    14.0749    22.0272 opls_157      1 RES        0.145000
    2118 O           33.5478    14.6624    20.8886 opls_154      1 RES       -0.683000
    2119 H           34.4451    14.3709    20.8350 opls_155      1 RES        0.418000
    2120 H           32.0120    14.5438    22.2944 opls_140      1 RES        0.060000
    2121 H           32.6887    13.0752    21.6871 opls_140      1 RES        0.060000
    2122 H           34.4673    13.2648    23.1636 opls_140      1 RES        0.060000
    2123 H           33.1584    13.8624    24.1786 opls_140      1 RES        0.060000
    2124 H           34.3087    15.0213    23.5569 opls_140      1 RES        0.060000
    2125 C           13.9078    27.6345     2.6401 opls_135      1 RES       -0.180000
    2126 C           15.1549    28.0848     3.4014 opls_157      1 RES        0.145000
    2127 O           15.5593    27.2816     4.4875 opls_154      1 RES       -0.683000
    2128 H           15.5196    26.3767     4.2179 opls_155      1 RES        0.418000
    2129 H           14.9417    29.1112     3.7001 opls_140      1 RES        0.060000
    2130 H           16.0530    28.1543     2.7877 opls_140      1 RES        0.060000
    2131 H           14.3056    26.8520     1.9939 opls_140      1 RES        0.060000
    2132 H           13.5328    28.4343     2.0014 opls_140      1 RES        0.060000
    2133 H           13.0602    27.2848     3.2296 opls_140      1 RES        0.060000
    2134 C           20.0341    14.4907    20.3216 opls_135      1 RES       -0.180000
    2135 C           19.8623    14.3675    18.8073 opls_157      1 RES        0.145000
    2136 O           20.2436    15.4825    18.0330 opls_154      1 RES       -0.683000
    2137 H           21.0781    15.7924    18.3504 opls_155      1 RES        0.418000
    2138 H           18.8139    14.1036    18.6679 opls_140      1 RES        0.060000
    2139 H           20.4186    13.5441    18.3594 opls_140      1 RES        0.060000
    2140 H           21.0985    14.2923    20.4469 opls_140      1 RES        0.060000
    2141 H           19.4860    13.7040    20.8399 opls_140      1 RES        0.060000
    2142 H           19.7376    15.4321    20.7842 opls_140      1 RES        0.060000
    2143 C           30.1575    21.7345    20.0286 opls_135      1 RES       -0.180000
    2144 C           29.3622    21.3671    21.2817 opls_157      1 RES        0.145000
    2145 O           28.7434    22.4284    21.9738 opls_154      1 RES       -0.683000
    2146 H           28.3202    22.9882    21.3409 opls_155      1 RES        0.418000
    2147 H           30.0671    20.8184    21.9063 opls_140      1 RES        0.060000
    2148 H           28.5450    20.6681    21.1040 opls_140      1 RES        0.060000
    2149 H           29.3700    21.8441    19.2830 opls_140      1 RES        0.060000
    2150 H           30.7966    20.9079    19.7180 opls_140      1 RES        0.060000
    2151 H           30.7950    22.6171    20.0810 opls_140      1 RES        0.060000
    2152 C           30.9574    17.5640    11.2723 opls_135      1 RES       -0.180000
    2153 C           32.3681    17.7776    11.8220 opls_157      1 RES        0.145000
    2154 O           33.4320    17.2551    11.0583 opls_154      1 RES       -0.683000
    2155 H           33.2825    17.4757    10.1517 opls_155      1 RES        0.418000
    2156 H           32.3381    17.3648    12.8303 opls_140      1 RES        0.060000
    2157 H           32.6417    18.8240    11.9575 opls_140      1 RES        0.060000
    2158 H           30.8850    18.3490    10.5196 opls_140      1 RES        0.060000
    2159 H           30.2078    17.7668    12.0372 opls_140      1 RES        0.060000
    2160 H           30.7236    16.5820    10.8612 opls_140      1 RES        0.060000
    2161 C           29.4619    19.7394    32.6539 opls_135      1 RES       -0.180000
    2162 C           28.4785    19.7074    33.8242 opls_157      1 RES        0.145000
    2163 O           27.1065    19.7384    33.5006 opls_154      1 RES       -0.683000
    2164 H           26.9554    19.1324    32.7913 opls_155      1 RES        0.418000
    2165 H           28.7751    20.5430    34.4583 opls_140      1 RES        0.060000
    2166 H           28.5701    18.8280    34.4616 opls_140      1 RES        0.060000
    2167 H           29.4532    18.7016    32.3207 opls_140      1 RES        0.060000
    2168 H           30.4698    19.9691    32.9997 opls_140      1 RES        0.060000
    2169 H           29.2482    20.4311    31.8390 opls_140      1 RES        0.060000
    2170 C            5.1604    17.2846    21.7659 opls_135      1 RES       -0.180000
    2171 C            6.1414    16.1839    22.1708 opls_157      1 RES        0.145000
    2172 O            6.4299    16.0662    23.5460 opls_154      1 RES       -0.683000
    2173 H            5.6171    16.1196    24.0251 opls_155      1 RES        0.418000
    2174 H            7.0332    16.3742    21.5737 opls_140      1 RES        0.060000
    2175 H            5.8271    15.1789    21.8895 opls_140      1 RES        0.060000
    2176 H            4.1977    16.8263    21.9923 opls_140      1 RES        0.060000
    2177 H            5.1989    17.4631    20.6913 opls_140      1 RES        0.060000
    2178 H            5.2722    18.2566    22.2462 opls_140      1 RES        0.060000
    2179 C            7.6824    22.1907     5.4499 opls_135      1 RES       -0.180000
    2180 C            7.0172    21.6892     6.7320 opls_157      1 RES        0.145000
    2181 O            7.7812    21.7659     7.9146 opls_154      1 RES       -0.683000
    2182 H            8.1957    22.6145     7.9452 opls_155      1 RES        0.418000
    2183 H            6.7070    20.6697     6.5027 opls_140      1 RES        0.060000
    2184 H            6.0948    22.2094     6.9904 opls_140      1 RES        0.060000
    2185 H            7.5566    23.2700     5.5352 opls_140      1 RES        0.060000
    2186 H            7.1295    21.8601     4.5706 opls_140      1 RES        0.060000
    2187 H            8.7234    21.9133     5.2844 opls_140      1 RES        0.060000
    2188 C           28.0932    24.2096    18.8575 opls_135      1 RES       -0.180000
    2189 C           27.6169    25.2080    17.8019 opls_157      1 RES        0.145000
    2190 O           28.2344    25.1357    16.5364 opls_154      1 RES       -0.683000
    2191 H           28.2835    24.2269    16.2820 opls_155      1 RES        0.418000
    2192 H           27.7397    26.1850    18.2692 opls_140      1 RES        0.060000
    2193 H           26.5537    25.1415    17.5708 opls_140      1 RES        0.060000
    2194 H           27.5529    23.3057    18.5763 opls_140      1 RES        0.060000
    2195 H           27.7546    24.5037    19.8509 opls_140      1 RES        0.060000
    2196 H           29.1665    24.0359    18.9341 opls_140      1 RES        0.060000
    2197 C           25.3753    13.2385    12.0157 opls_135      1 RES       -0.180000
    2198 C           24.1816    12.9500    11.1048 opls_157      1 RES        0.145000
    2199 O           24.0108    13.8022     9.9945 opls_154      1 RES       -0.683000
    2200 H           24.8519    13.9225     9.5810 opls_155      1 RES        0.418000
    2201 H           23.3180    12.9554    11.7698 opls_140      1 RES        0.060000
    2202 H           24.1866    11.9537    10.6629 opls_140      1 RES        0.060000
    2203 H           26.1984    12.7858    11.4627 opls_140      1 RES        0.060000
    2204 H           25.2788    12.7069    12.9624 opls_140      1 RES        0.060000
    2205 H           25.5755    14.2808    12.2640 opls_140      1 RES        0.060000
    2206 C            2.4850    19.1127    13.7997 opls_135      1 RES       -0.180000
    2207 C            3.9981    19.3163    13.8832 opls_157      1 RES        0.145000
    2208 O            4.7791    18.6778    12.8981 opls_154      1 RES       -0.683000
    2209 H            4.3690    18.8173    12.0582 opls_155      1 RES        0.418000
    2210 H            4.2645    19.0030    14.8926 opls_140      1 RES        0.060000
    2211 H            4.3133    20.3579    13.8226 opls_140      1 RES        0.060000
    2212 H            2.2018    19.8249    13.0247 opls_140      1 RES        0.060000
    2213 H            2.0001    19.4197    14.7264 opls_140      1 RES        0.060000
    2214 H            2.1264    18.1071    13.5801 opls_140      1 RES        0.060000
    2215 C           18.6069    26.0165    11.6915 opls_135      1 RES       -0.180000
    2216 C           19.5870    25.1503    10.8996 opls_157      1 RES        0.145000
    2217 O           19.3076    24.9674     9.5297 opls_154      1 RES       -0.683000
    2218 H           19.0740    25.8053     9.1603 opls_155      1 RES        0.418000
    2219 H           19.6270    24.2076    11.4452 opls_140      1 RES        0.060000
    2220 H           20.6130    25.5181    10.9034 opls_140      1 RES        0.060000
    2221 H           18.9286    27.0239    11.4274 opls_140      1 RES        0.060000
    2222 H           18.7560    25.8904    12.7638 opls_140      1 RES        0.060000
    2223 H           17.5433    25.8664    11.5062 opls_140      1 RES        0.060000
    2224 C            2.6777     3.4706    21.1693 opls_135      1 RES       -0.180000
    2225 C            2.8435     2.6789    19.8717 opls_157      1 RES        0.145000
    2226 O            2.9562     3.4275    18.6822 opls_154      1 RES       -0.683000
    2227 H            3.5591     4.1388    18.8356 opls_155      1 RES        0.418000
    2228 H            1.9947     1.9953    19.8539 opls_140      1 RES        0.060000
    2229 H            3.7215     2.0333    19.8506 opls_140      1 RES        0.060000
    2230 H            3.7025     3.7738    21.3836 opls_140      1 RES        0.060000
    2231 H            2.3465     2.8220    21.9803 opls_140      1 RES        0.060000
    2232 H            1.9957     4.3208    21.1535 opls_140      1 RES        0.060000
    2233 C            8.5367    12.8409    33.9031 opls_135      1 RES       -0.180000
    2234 C            8.3782    11.3550    33.5796 opls_157      1 RES        0.145000
    2235 O            7.1016    10.9305    33.1576 opls_154      1 RES       -0.683000
    2236 H            6.7792    11.5493    32.5202 opls_155      1 RES        0.418000
    2237 H            8.7116    10.8384    34.4797 opls_140      1 RES        0.060000
    2238 H            9.0397    10.9957    32.7913 opls_140      1 RES        0.060000
    2239 H            8.6503    13.2790    32.9115 opls_140      1 RES        0.060000
    2240 H            9.4595    13.0221    34.4542 opls_140      1 RES        0.060000
    2241 H            7.7375    13.3179    34.4705 opls_140      1 RES        0.060000
    2242 C           27.8024     2.9471    12.9171 opls_135      1 RES       -0.180000
    2243 C           27.8173     3.6291    14.2855 opls_157      1 RES        0.145000
    2244 O           27.2195     2.9254    15.3512 opls_154      1 RES       -0.683000
    2245 H           27.5086     2.0266    15.3121 opls_155      1 RES        0.418000
    2246 H           27.3526     4.6004    14.1161 opls_140      1 RES        0.060000
    2247 H           28.8148     3.8591    14.6599 opls_140      1 RES        0.060000
    2248 H           28.6331     2.2466    13.0027 opls_140      1 RES        0.060000
    2249 H           28.0464     3.6570    12.1268 opls_140      1 RES        0.060000
    2250 H           26.8802     2.4510    12.6148 opls_140      1 RES        0.060000
    2251 C           10.6933    20.1859     4.6874 opls_135      1 RES       -0.180000
    2252 C           10.5874    19.4296     3.3627 opls_157      1 RES        0.145000
    2253 O            9.3210    19.4101     2.7432 opls_154      1 RES       -0.683000
    2254 H            8.9631    20.2842     2.7726 opls_155      1 RES        0.418000
    2255 H           10.9570    18.4286     3.5850 opls_140      1 RES        0.060000
    2256 H           11.2481    19.8031     2.5803 opls_140      1 RES        0.060000
    2257 H           10.7716    21.2205     4.3533 opls_140      1 RES        0.060000
    2258 H           11.6181    19.9332     5.2060 opls_140      1 RES        0.060000
    2259 H            9.8864    20.0500     5.4075 opls_140      1 RES        0.060000
    2260 C           30.7690    16.7683    15.6170 opls_135      1 RES       -0.180000
    2261 C           31.6564    17.7667    16.3611 opls_157      1 RES        0.145000
    2262 O           31.4017    17.9385    17.7372 opls_154      1 RES       -0.683000
    2263 H           31.2894    17.0849    18.1267 opls_155      1 RES        0.418000
    2264 H           31.5576    18.6964    15.8007 opls_140      1 RES        0.060000
    2265 H           32.7203    17.5323    16.3262 opls_140      1 RES        0.060000
    2266 H           31.2252    15.8150    15.8841 opls_140      1 RES        0.060000
    2267 H           30.8650    16.8921    14.5383 opls_140      1 RES        0.060000
    2268 H           29.7017    16.7855    15.8377 opls_140      1 RES        0.060000
    2269 C           33.6690     5.8533    30.5879 opls_135      1 RES       -0.180000
    2270 C           33.7563     5.7097    29.0681 opls_157      1 RES        0.145000
    2271 O           34.1263     4.4432    28.5711 opls_154      1 RES       -0.683000
    2272 H           33.6363     3.7857    29.0407 opls_155      1 RES        0.418000
    2273 H           34.4428     6.4962    28.7545 opls_140      1 RES        0.060000
    2274 H           32.8256     5.9272    28.5440 opls_140      1 RES        0.060000
    2275 H           32.6942     5.4152    30.8024 opls_140      1 RES        0.060000
    2276 H           33.6323     6.9035    30.8773 opls_140      1 RES        0.060000
    2277 H           34.4610     5.3955    31.1804 opls_140      1 RES        0.060000
    2278 C           26.5877    22.6999     5.9169 opls_135      1 RES       -0.180000
    2279 C           26.9581    24.0565     6.5173 opls_157      1 RES        0.145000
    2280 O           26.5517    24.2939     7.8464 opls_154      1 RES       -0.683000
    2281 H           26.7498    23.5250     8.3588 opls_155      1 RES        0.418000
    2282 H           26.5497    24.7886     5.8206 opls_140      1 RES        0.060000
    2283 H           28.0289    24.2591     6.5382 opls_140      1 RES        0.060000
    2284 H           27.3560    22.0489     6.3340 opls_140      1 RES        0.060000
    2285 H           26.7108    22.7079     4.8339 opls_140      1 RES        0.060000
    2286 H           25.5838    22.3231     6.1124 opls_140      1 RES        0.060000
    2287 C           24.5056    29.4788    20.8212 opls_135      1 RES       -0.180000
    2288 C           23.3127    29.5902    19.8712 opls_157      1 RES        0.145000
    2289 O           23.3956    28.8696    18.6621 opls_154      1 RES       -0.683000
    2290 H           23.7155    28.0017    18.8556 opls_155      1 RES        0.418000
    2291 H           23.1864    30.6607    19.7094 opls_140      1 RES        0.060000
    2292 H           22.3667    29.2600    20.3003 opls_140      1 RES        0.060000
    2293 H           24.3210    28.5207    21.3072 opls_140      1 RES        0.060000
    2294 H           24.4656    30.2532    21.5873 opls_140      1 RES        0.060000
    2295 H           25.5019    29.5279    20.3819 opls_140      1 RES        0.060000
    2296 C           10.6716    11.7231     4.0126 opls_135      1 RES       -0.180000
    2297 C           10.2321    11.6280     2.5512 opls_157      1 RES        0.145000
    2298 O           10.1419    10.3337     1.9992 opls_154      1 RES       -0.683000
    2299 H            9.7003     9.7762     2.6214 opls_155      1 RES        0.418000
    2300 H           10.9328    12.2633     2.0093 opls_140      1 RES        0.060000
    2301 H            9.2517    12.0598     2.3499 opls_140      1 RES        0.060000
    2302 H            9.7479    11.4934     4.5436 opls_140      1 RES        0.060000
    2303 H           10.9560    12.7442     4.2670 opls_140      1 RES        0.060000
    2304 H           11.4947    11.0832     4.3307 opls_140      1 RES        0.060000
    2305 C            6.1898    24.9085    16.0643 opls_135      1 RES       -0.180000
    2306 C            6.4667    23.4335    16.3563 opls_157      1 RES        0.145000
    2307 O            5.9123    22.9067    17.5409 opls_154      1 RES       -0.683000
    2308 H            5.0163    23.2000    17.6049 opls_155      1 RES        0.418000
    2309 H            7.5528    23.3450    16.3304 opls_140      1 RES        0.060000
    2310 H            6.1132    22.7504    15.5839 opls_140      1 RES        0.060000
    2311 H            5.1818    24.8736    15.6509 opls_140      1 RES        0.060000
    2312 H            6.8553    25.2820    15.2860 opls_140      1 RES        0.060000
    2313 H            6.2645    25.6067    16.8979 opls_140      1 RES        0.060000
    2314 C            3.4826     3.8144     9.5899 opls_135      1 RES       -0.180000
    2315 C            3.1785     5.2837     9.2956 opls_157      1 RES        0.145000
    2316 O            2.0423     5.8341     9.9234 opls_154      1 RES       -0.683000
    2317 H            2.0449     5.5655    10.8294 opls_155      1 RES        0.418000
    2318 H            3.1224     5.3427     8.2086 opls_140      1 RES        0.060000
    2319 H            3.9793     5.9701     9.5707 opls_140      1 RES        0.060000
    2320 H            3.9714     3.8734    10.5623 opls_140      1 RES        0.060000
    2321 H            4.2060     3.4173     8.8778 opls_140      1 RES        0.060000
    2322 H            2.6418     3.1208     9.5976 opls_140      1 RES        0.060000
    2323 C           29.7522    27.6315    29.5181 opls_135      1 RES       -0.180000
    2324 C           29.6293    26.9779    30.8949 opls_157      1 RES        0.145000
    2325 O           29.8185    25.5818    30.9532 opls_154      1 RES       -0.683000
    2326 H           30.5794    25.3640    30.4368 opls_155      1 RES        0.418000
    2327 H           28.6470    27.2798    31.2582 opls_140      1 RES        0.060000
    2328 H           30.3303    27.3612    31.6363 opls_140      1 RES        0.060000
    2329 H           30.8329    27.7102    29.3991 opls_140      1 RES        0.060000
    2330 H           29.3446    28.6423    29.5303 opls_140      1 RES        0.060000
    2331 H           29.2857    27.1188    28.6769 opls_140      1 RES        0.060000
    2332 C           33.0862    17.6484     2.8708 opls_135      1 RES       -0.180000
    2333 C           33.7918    18.8054     3.5789 opls_157      1 RES        0.145000
    2334 O           34.4603    19.7374     2.7588 opls_154      1 RES       -0.683000
    2335 H           33.8943    19.9540     2.0338 opls_155      1 RES        0.418000
    2336 H           34.4602    18.3262     4.2942 opls_140      1 RES        0.060000
    2337 H           33.1333    19.4266     4.1861 opls_140      1 RES        0.060000
    2338 H           32.1590    18.1157     2.5392 opls_140      1 RES        0.060000
    2339 H           32.8269    16.8605     3.5781 opls_140      1 RES        0.060000
    2340 H           33.6162    17.1661     2.0495 opls_140      1 RES        0.060000
    2341 C            4.5138    11.8024    15.5827 opls_135      1 RES       -0.180000
    2342 C            4.5664    11.4143    17.0607 opls_157      1 RES        0.145000
    2343 O            4.4417    12.4619    17.9962 opls_154      1 RES       -0.683000
    2344 H            3.7326    13.0226    17.7206 opls_155      1 RES        0.418000
    2345 H            5.5033    10.8682    17.1705 opls_140      1 RES        0.060000
    2346 H            3.7946    10.7075    17.3654 opls_140      1 RES        0.060000
    2347 H            3.4424    11.9097    15.4134 opls_140      1 RES        0.060000
    2348 H            4.8696    10.9862    14.9539 opls_140      1 RES        0.060000
    2349 H            5.0656    12.6918    15.2785 opls_140      1 RES        0.060000
    2350 C            7.6879    27.0926    13.7651 opls_135      1 RES       -0.180000
    2351 C            7.8079    28.1831    14.8300 opls_157      1 RES        0.145000
    2352 O            9.1079    28.4836    15.2861 opls_154      1 RES       -0.683000
    2353 H            9.6782    28.5468    14.5353 opls_155      1 RES        0.418000
    2354 H            7.1496    27.8575    15.6354 opls_140      1 RES        0.060000
    2355 H            7.4149    29.1526    14.5238 opls_140      1 RES        0.060000
    2356 H            7.9495    27.6329    12.8553 opls_140      1 RES        0.060000
    2357 H            6.6553    26.7573    13.6672 opls_140      1 RES        0.060000
    2358 H            8.2942    26.1962    13.8956 opls_140      1 RES        0.060000
    2359 C           20.6160    32.0078    23.6062 opls_135      1 RES       -0.180000
    2360 C           19.8959    32.1725    24.9449 opls_157      1 RES        0.145000
    2361 O           19.3689    33.4492    25.2285 opls_154      1 RES       -0.683000
    2362 H           18.9250    33.7649    24.4562 opls_155      1 RES        0.418000
    2363 H           20.6205    31.8467    25.6912 opls_140      1 RES        0.060000
    2364 H           19.0416    31.5089    25.0780 opls_140      1 RES        0.060000
    2365 H           19.7835    31.8866    22.9131 opls_140      1 RES        0.060000
    2366 H           21.1990    31.0869    23.5895 opls_140      1 RES        0.060000
    2367 H           21.2898    32.8073    23.2982 opls_140      1 RES        0.060000
    2368 C           10.0605    14.0086    21.5066 opls_135      1 RES       -0.180000
    2369 C            9.1915    13.3031    20.4651 opls_157      1 RES        0.145000
    2370 O            7.7963    13.3575    20.6615 opls_154      1 RES       -0.683000
    2371 H            7.5635    14.2442    20.8908 opls_155      1 RES        0.418000
    2372 H            9.5678    12.2805    20.4370 opls_140      1 RES        0.060000
    2373 H            9.3203    13.6752    19.4487 opls_140      1 RES        0.060000
    2374 H            9.9939    15.0499    21.1912 opls_140      1 RES        0.060000
    2375 H           11.1021    13.7000    21.4167 opls_140      1 RES        0.060000
    2376 H            9.7886    13.8819    22.5545 opls_140      1 RES        0.060000
    2377 C           16.4604    22.6557    11.9484 opls_135      1 RES       -0.180000
    2378 C           17.4064    22.8487    10.7628 opls_157      1 RES        0.145000
    2379 O           16.9757    22.3432     9.5190 opls_154      1 RES       -0.683000
    2380 H           16.0715    22.5892     9.3962 opls_155      1 RES        0.418000
    2381 H           18.3496    22.4085    11.0864 opls_140      1 RES        0.060000
    2382 H           17.6451    23.8899    10.5458 opls_140      1 RES        0.060000
    2383 H           15.7414    23.4613    11.7996 opls_140      1 RES        0.060000
    2384 H           16.9761    22.8403    12.8908 opls_140      1 RES        0.060000
    2385 H           15.9720    21.6862    12.0466 opls_140      1 RES        0.060000
    2386 C            8.8999    12.3564    15.0173 opls_135      1 RES       -0.180000
    2387 C            8.0108    11.6778    16.0598 opls_157      1 RES        0.145000
    2388 O            8.4666    11.7015    17.3939 opls_154      1 RES       -0.683000
    2389 H            8.7717    12.5747    17.5875 opls_155      1 RES        0.418000
    2390 H            7.8707    10.6634    15.6863 opls_140      1 RES        0.060000
    2391 H            7.0045    12.0913    16.1270 opls_140      1 RES        0.060000
    2392 H            8.6458    13.4079    15.1511 opls_140      1 RES        0.060000
    2393 H            8.6043    12.0688    14.0084 opls_140      1 RES        0.060000
    2394 H            9.9740    12.1845    15.0870 opls_140      1 RES        0.060000
    2395 C           17.1389    15.8544     7.1857 opls_135      1 RES       -0.180000
    2396 C           18.1345    16.3216     8.2479 opls_157      1 RES        0.145000
    2397 O           17.6958    16.2860     9.5875 opls_154      1 RES       -0.683000
    2398 H           17.2608    15.4601     9.7351 opls_155      1 RES        0.418000
    2399 H           18.4264    17.3233     7.9326 opls_140      1 RES        0.060000
    2400 H           19.0649    15.7542     8.2694 opls_140      1 RES        0.060000
    2401 H           17.2279    14.7701     7.2513 opls_140      1 RES        0.060000
    2402 H           17.4642    16.1549     6.1897 opls_140      1 RES        0.060000
    2403 H           16.1055    16.1856     7.2878 opls_140      1 RES        0.060000
    2404 C            5.7123    24.5928     9.1599 opls_135      1 RES       -0.180000
    2405 C            6.4190    25.9182     9.4457 opls_157      1 RES        0.145000
    2406 O            7.0099    26.5719     8.3449 opls_154      1 RES       -0.683000
    2407 H            6.3972    26.5541     7.6257 opls_155      1 RES        0.418000
    2408 H            7.1418    25.6839    10.2271 opls_140      1 RES        0.060000
    2409 H            5.7762    26.6831     9.8812 opls_140      1 RES        0.060000
    2410 H            4.7533    24.9268     8.7639 opls_140      1 RES        0.060000
    2411 H            5.5188    24.0486    10.0843 opls_140      1 RES        0.060000
    2412 H            6.2103    23.8946     8.4872 opls_140      1 RES        0.060000
    2413 C           13.7438    23.7467    33.4628 opls_135      1 RES       -0.180000
    2414 C           12.5577    24.7014    33.3233 opls_157      1 RES        0.145000
    2415 O           12.4260    25.6978    34.3123 opls_154      1 RES       -0.683000
    2416 H           13.2764    26.0823    34.4608 opls_155      1 RES        0.418000
    2417 H           11.6841    24.0519    33.2686 opls_140      1 RES        0.060000
    2418 H           12.5445    25.2651    32.3905 opls_140      1 RES        0.060000
    2419 H           14.5638    24.3419    33.0610 opls_140      1 RES        0.060000
    2420 H           13.6190    22.8757    32.8195 opls_140      1 RES        0.060000
    2421 H           13.9662    23.3668    34.4600 opls_140      1 RES        0.060000
    2422 C            5.5227    10.6327     7.3601 opls_135      1 RES       -0.180000
    2423 C            4.8683    10.6878     8.7409 opls_157      1 RES        0.145000
    2424 O            3.8217    11.6174     8.9099 opls_154      1 RES       -0.683000
    2425 H            3.2484    11.5578     8.1610 opls_155      1 RES        0.418000
    2426 H            5.6934    10.8605     9.4319 opls_140      1 RES        0.060000
    2427 H            4.4266     9.7453     9.0646 opls_140      1 RES        0.060000
    2428 H            4.8120    10.0295     6.7952 opls_140      1 RES        0.060000
    2429 H            6.4653    10.0867     7.3986 opls_140      1 RES        0.060000
    2430 H            5.7337    11.5820     6.8677 opls_140      1 RES        0.060000
    2431 C            4.3913    27.8521    15.3504 opls_135      1 RES       -0.180000
    2432 C            3.4103    27.4205    14.2599 opls_157      1 RES        0.145000
    2433 O            3.7826    27.6939    12.9277 opls_154      1 RES       -0.683000
    2434 H            4.6885    27.4490    12.8169 opls_155      1 RES        0.418000
    2435 H            2.4668    27.8928    14.5333 opls_140      1 RES        0.060000
    2436 H            3.1942    26.3521    14.2499 opls_140      1 RES        0.060000
    2437 H            5.1275    27.0486    15.3255 opls_140      1 RES        0.060000
    2438 H            3.9145    27.8356    16.3304 opls_140      1 RES        0.060000
    2439 H            4.8549    28.8332    15.2472 opls_140      1 RES        0.060000
    2440 C            4.0379    22.0148    10.2738 opls_135      1 RES       -0.180000
    2441 C            2.8451    22.6540    10.9854 opls_157      1 RES        0.145000
    2442 O            3.0778    23.8852    11.6321 opls_154      1 RES       -0.683000
    2443 H            3.5807    24.4349    11.0509 opls_155      1 RES        0.418000
    2444 H            2.4869    21.8857    11.6706 opls_140      1 RES        0.060000
    2445 H            1.9962    22.8645    10.3348 opls_140      1 RES        0.060000
    2446 H            4.0697    22.5718     9.3374 opls_140      1 RES        0.060000
    2447 H            3.8332    20.9716    10.0332 opls_140      1 RES        0.060000
    2448 H            4.9973    22.0316    10.7910 opls_140      1 RES        0.060000
    2449 C           15.9525    23.6274    23.6785 opls_135      1 RES       -0.180000
    2450 C           16.1876    23.4144    25.1743 opls_157      1 RES        0.145000
    2451 O           16.2920    22.0794    25.6160 opls_154      1 RES       -0.683000
    2452 H           16.8557    21.6126    25.0182 opls_155      1 RES        0.418000
    2453 H           15.3739    23.9512    25.6618 opls_140      1 RES        0.060000
    2454 H           17.0963    23.8805    25.5552 opls_140      1 RES        0.060000
    2455 H           16.9559    23.5053    23.2707 opls_140      1 RES        0.060000
    2456 H           15.6341    24.6502    23.4772 opls_140      1 RES        0.060000
    2457 H           15.2305    22.9751    23.1872 opls_140      1 RES        0.060000
    2458 C            4.9509     9.5090    24.2808 opls_135      1 RES       -0.180000
    2459 C            4.5968    10.7616    25.0829 opls_157      1 RES        0.145000
    2460 O            3.2423    10.9244    25.4396 opls_154      1 RES       -0.683000
    2461 H            2.9196    10.0973    25.7633 opls_155      1 RES        0.418000
    2462 H            4.9709    11.5904    24.4819 opls_140      1 RES        0.060000
    2463 H            5.1227    10.8476    26.0337 opls_140      1 RES        0.060000
    2464 H            4.9994     8.7468    25.0585 opls_140      1 RES        0.060000
    2465 H            5.9438     9.5979    23.8401 opls_140      1 RES        0.060000
    2466 H            4.2769     9.2246    23.4728 opls_140      1 RES        0.060000
    2467 C            9.1337    16.7443    18.4913 opls_135      1 RES       -0.180000
    2468 C            8.2853    17.6870    19.3453 opls_157      1 RES        0.145000
    2469 O            6.8873    17.5145    19.2820 opls_154      1 RES       -0.683000
    2470 H            6.6997    16.5902    19.3406 opls_155      1 RES        0.418000
    2471 H            8.5948    18.6877    19.0441 opls_140      1 RES        0.060000
    2472 H            8.4999    17.6386    20.4128 opls_140      1 RES        0.060000
    2473 H            9.1548    15.8412    19.1013 opls_140      1 RES        0.060000
    2474 H           10.1563    17.1118    18.4061 opls_140      1 RES        0.060000
    2475 H            8.7908    16.5428    17.4764 opls_140      1 RES        0.060000
    2476 C           10.5687     6.4027     8.2688 opls_135      1 RES       -0.180000
    2477 C           10.6067     6.9313     6.8346 opls_157      1 RES        0.145000
    2478 O            9.5380     7.7601     6.4358 opls_154      1 RES       -0.683000
    2479 H            9.3761     8.3869     7.1242 opls_155      1 RES        0.418000
    2480 H           10.6960     6.0403     6.2131 opls_140      1 RES        0.060000
    2481 H           11.4905     7.5244     6.5996 opls_140      1 RES        0.060000
    2482 H           10.9377     7.2570     8.8363 opls_140      1 RES        0.060000
    2483 H           11.2776     5.5852     8.4002 opls_140      1 RES        0.060000
    2484 H            9.6102     6.0460     8.6458 opls_140      1 RES        0.060000
    2485 C           28.5374     5.3590     4.1071 opls_135      1 RES       -0.180000
    2486 C           27.4146     6.3709     3.8762 opls_157      1 RES        0.145000
    2487 O           27.1985     6.7857     2.5461 opls_154      1 RES       -0.683000
    2488 H           27.2132     6.0210     1.9910 opls_155      1 RES        0.418000
    2489 H           27.6519     7.2038     4.5381 opls_140      1 RES        0.060000
    2490 H           26.4313     6.0297     4.1997 opls_140      1 RES        0.060000
    2491 H           28.0594     4.4205     3.8264 opls_140      1 RES        0.060000
    2492 H           28.7938     5.2980     5.1648 opls_140      1 RES        0.060000
    2493 H           29.4724     5.5171     3.5697 opls_140      1 RES        0.060000
    2494 C            3.5444    16.7062    30.3916 opls_135      1 RES       -0.180000
    2495 C            2.6744    15.4794    30.6672 opls_157      1 RES        0.145000
    2496 O            1.9944    14.9236    29.5641 opls_154      1 RES       -0.683000
    2497 H            2.5981    14.8723    28.8389 opls_155      1 RES        0.418000
    2498 H            1.9947    15.7940    31.4591 opls_140      1 RES        0.060000
    2499 H            3.2164    14.6315    31.0860 opls_140      1 RES        0.060000
    2500 H            4.4486    16.2566    29.9813 opls_140      1 RES        0.060000
    2501 H            3.8146    17.2073    31.3210 opls_140      1 RES        0.060000
    2502 H            3.1353    17.4726    29.7333 opls_140      1 RES        0.060000
    2503 C           26.4688    22.1471    16.3778 opls_135      1 RES       -0.180000
    2504 C           25.2521    21.4457    15.7731 opls_157      1 RES        0.145000
    2505 O           25.4875    20.2189    15.1191 opls_154      1 RES       -0.683000
    2506 H           26.0619    19.6996    15.6608 opls_155      1 RES        0.418000
    2507 H           24.8031    22.1887    15.1141 opls_140      1 RES        0.060000
    2508 H           24.4708    21.2043    16.4939 opls_140      1 RES        0.060000
    2509 H           26.6039    21.6032    17.3127 opls_140      1 RES        0.060000
    2510 H           26.2363    23.1826    16.6263 opls_140      1 RES        0.060000
    2511 H           27.3817    22.1681    15.7826 opls_140      1 RES        0.060000
    2512 C            8.8457    24.8584    31.5443 opls_135      1 RES       -0.180000
    2513 C           10.1034    24.9241    30.6773 opls_157      1 RES        0.145000
    2514 O            9.9943    24.4252    29.3630 opls_154      1 RES       -0.683000
    2515 H            9.1916    24.7530    28.9872 opls_155      1 RES        0.418000
    2516 H           10.8669    24.4053    31.2569 opls_140      1 RES        0.060000
    2517 H           10.4972    25.9306    30.5359 opls_140      1 RES        0.060000
    2518 H            8.2832    25.7245    31.1957 opls_140      1 RES        0.060000
    2519 H            9.0890    25.0208    32.5944 opls_140      1 RES        0.060000
    2520 H            8.2545    23.9437    31.5006 opls_140      1 RES        0.060000
    2521 C           12.0310    19.8717     8.4787 opls_135      1 RES       -0.180000
    2522 C           10.9159    20.8971     8.6858 opls_157      1 RES        0.145000
    2523 O            9.8683    20.8939     7.7420 opls_154      1 RES       -0.683000
    2524 H            9.6098    19.9979     7.5892 opls_155      1 RES        0.418000
    2525 H           11.4285    21.8578     8.7346 opls_140      1 RES        0.060000
    2526 H           10.3985    20.8087     9.6411 opls_140      1 RES        0.060000
    2527 H           11.5842    18.9642     8.8850 opls_140      1 RES        0.060000
    2528 H           12.9010    20.1155     9.0885 opls_140      1 RES        0.060000
    2529 H           12.3955    19.7266     7.4618 opls_140      1 RES        0.060000
    2530 C           14.6403     2.8851    11.9496 opls_135      1 RES       -0.180000
    2531 C           14.8140     3.5868    13.2970 opls_157      1 RES        0.145000
    2532 O           14.3669     2.8889    14.4377 opls_154      1 RES       -0.683000
    2533 H           14.6649     1.9944    14.3736 opls_155      1 RES        0.418000
    2534 H           14.3145     4.5479    13.1753 opls_140      1 RES        0.060000
    2535 H           15.8463     3.8383    13.5406 opls_140      1 RES        0.060000
    2536 H           15.4875     2.1995    11.9390 opls_140      1 RES        0.060000
    2537 H           14.7708     3.5875    11.1264 opls_140      1 RES        0.060000
    2538 H           13.6965     2.3698    11.7714 opls_140      1 RES        0.060000
    2539 C            7.6915     2.8427     8.7611 opls_135      1 RES       -0.180000
    2540 C            6.6628     2.6914     9.8820 opls_157      1 RES        0.145000
    2541 O            7.1522     2.2895    11.1418 opls_154      1 RES       -0.683000
    2542 H            7.9293     2.7924    11.3322 opls_155      1 RES        0.418000
    2543 H            5.9198     1.9999     9.4847 opls_140      1 RES        0.060000
    2544 H            6.1056     3.6016    10.1038 opls_140      1 RES        0.060000
    2545 H            8.1205     3.8214     8.9762 opls_140      1 RES        0.060000
    2546 H            7.2013     2.9010     7.7893 opls_140      1 RES        0.060000
    2547 H            8.4572     2.0716     8.6766 opls_140      1 RES        0.060000
    2548 C           21.6745    19.0107    31.9400 opls_135      1 RES       -0.180000
    2549 C           22.8193    19.5068    31.0563 opls_157      1 RES        0.145000
    2550 O           22.6071    19.4687    29.6628 opls_154      1 RES       -0.683000
    2551 H           21.7438    19.8095    29.4850 opls_155      1 RES        0.418000
    2552 H           23.6819    18.9146    31.3618 opls_140      1 RES        0.060000
    2553 H           23.1116    20.5405    31.2412 opls_140      1 RES        0.060000
    2554 H           21.0081    19.8731    31.9550 opls_140      1 RES        0.060000
    2555 H           22.0179    18.8382    32.9600 opls_140      1 RES        0.060000
    2556 H           21.1587    18.1024    31.6283 opls_140      1 RES        0.060000
    2557 C           24.0255    12.0152    21.4101 opls_135      1 RES       -0.180000
    2558 C           24.2736    11.0085    22.5339 opls_157      1 RES        0.145000
    2559 O           23.9089    11.4090    23.8358 opls_154      1 RES       -0.683000
    2560 H           23.0540    11.8096    23.7941 opls_155      1 RES        0.418000
    2561 H           25.3324    10.7618    22.4561 opls_140      1 RES        0.060000
    2562 H           23.7560    10.0579    22.4054 opls_140      1 RES        0.060000
    2563 H           22.9603    11.8852    21.2189 opls_140      1 RES        0.060000
    2564 H           24.5628    11.7283    20.5062 opls_140      1 RES        0.060000
    2565 H           24.2805    13.0567    21.6054 opls_140      1 RES        0.060000
    2566 C           18.4759     6.1605    23.3858 opls_135      1 RES       -0.180000
    2567 C           17.9191     7.4479    22.7772 opls_157      1 RES        0.145000
    2568 O           16.9769     7.3024    21.7383 opls_154      1 RES       -0.683000
    2569 H           16.3539     6.6394    21.9939 opls_155      1 RES        0.418000
    2570 H           18.7992     8.0098    22.4645 opls_140      1 RES        0.060000
    2571 H           17.4129     8.0978    23.4910 opls_140      1 RES        0.060000
    2572 H           17.6773     5.8667    24.0670 opls_140      1 RES        0.060000
    2573 H           19.3639     6.3659    23.9836 opls_140      1 RES        0.060000
    2574 H           18.7428     5.3568    22.6996 opls_140      1 RES        0.060000
    2575 C           17.8915    11.8242    17.8258 opls_135      1 RES       -0.180000
    2576 C           17.8581    10.7096    18.8720 opls_157      1 RES        0.145000
    2577 O           18.7146    10.8563    19.9824 opls_154      1 RES       -0.683000
    2578 H           18.6455    11.7455    20.2946 opls_155      1 RES        0.418000
    2579 H           18.0576     9.7968    18.3107 opls_140      1 RES        0.060000
    2580 H           16.8794    10.5500    19.3245 opls_140      1 RES        0.060000
    2581 H           17.2653    12.5880    18.2868 opls_140      1 RES        0.060000
    2582 H           17.4040    11.5065    16.9041 opls_140      1 RES        0.060000
    2583 H           18.8685    12.2149    17.5414 opls_140      1 RES        0.060000
    2584 C           34.0502    20.8408     9.5675 opls_135      1 RES       -0.180000
    2585 C           32.5250    20.8290     9.6744 opls_157      1 RES        0.145000
    2586 O           31.8419    19.8758     8.8914 opls_154      1 RES       -0.683000
    2587 H           32.2884    19.0473     8.9765 opls_155      1 RES        0.418000
    2588 H           32.2232    21.8504     9.4430 opls_140      1 RES        0.060000
    2589 H           32.1485    20.6486    10.6813 opls_140      1 RES        0.060000
    2590 H           34.3306    20.0129    10.2188 opls_140      1 RES        0.060000
    2591 H           34.4625    21.7546     9.9953 opls_140      1 RES        0.060000
    2592 H           34.4832    20.7412     8.5721 opls_140      1 RES        0.060000
    2593 C            2.9533    30.4327    31.9699 opls_135      1 RES       -0.180000
    2594 C            2.8696    31.3231    33.2101 opls_157      1 RES        0.145000
    2595 O            2.8201    30.6689    34.4582 opls_154      1 RES       -0.683000
    2596 H            3.4713    29.9841    34.4599 opls_155      1 RES        0.418000
    2597 H            1.9995    31.9567    33.0381 opls_140      1 RES        0.060000
    2598 H            3.7025    32.0176    33.3193 opls_140      1 RES        0.060000
    2599 H            4.0119    30.1740    31.9464 opls_140      1 RES        0.060000
    2600 H            2.7302    31.0018    31.0675 opls_140      1 RES        0.060000
    2601 H            2.3168    29.5483    31.9445 opls_140      1 RES        0.060000
    2602 C            3.2059    18.8284    17.8549 opls_135      1 RES       -0.180000
    2603 C            2.6581    20.2535    17.7723 opls_157      1 RES        0.145000
    2604 O            2.0215    20.7560    18.9258 opls_154      1 RES       -0.683000
    2605 H            2.5535    20.5394    19.6761 opls_155      1 RES        0.418000
    2606 H            1.9999    20.2474    16.9035 opls_140      1 RES        0.060000
    2607 H            3.4102    21.0095    17.5466 opls_140      1 RES        0.060000
    2608 H            4.1464    18.9763    18.3855 opls_140      1 RES        0.060000
    2609 H            3.4410    18.4445    16.8622 opls_140      1 RES        0.060000
    2610 H            2.5792    18.0782    18.3374 opls_140      1 RES        0.060000
    2611 C            5.5410     5.0288    20.4210 opls_135      1 RES       -0.180000
    2612 C            6.5081     6.1613    20.0742 opls_157      1 RES        0.145000
    2613 O            6.6209     6.5036    18.7110 opls_154      1 RES       -0.683000
    2614 H            5.7513     6.5490    18.3438 opls_155      1 RES        0.418000
    2615 H            7.4606     5.8541    20.5059 opls_140      1 RES        0.060000
    2616 H            6.2767     7.1107    20.5570 opls_140      1 RES        0.060000
    2617 H            4.5779     5.5390    20.4051 opls_140      1 RES        0.060000
    2618 H            5.7107     4.6705    21.4363 opls_140      1 RES        0.060000
    2619 H            5.5475     4.1498    19.7764 opls_140      1 RES        0.060000
    2620 C            9.9496    24.4779     9.2318 opls_135      1 RES       -0.180000
    2621 C            9.7953    25.3432     7.9806 opls_157      1 RES        0.145000
    2622 O            8.7861    24.9676     7.0704 opls_154      1 RES       -0.683000
    2623 H            8.0024    24.7719     7.5609 opls_155      1 RES        0.418000
    2624 H           10.7853    25.3496     7.5245 opls_140      1 RES        0.060000
    2625 H            9.5764    26.3911     8.1856 opls_140      1 RES        0.060000
    2626 H            9.1486    24.8535     9.8686 opls_140      1 RES        0.060000
    2627 H           10.8960    24.6835     9.7319 opls_140      1 RES        0.060000
    2628 H            9.8950    23.3969     9.1029 opls_140      1 RES        0.060000
    2629 C           20.5666    30.9572    15.9736 opls_135      1 RES       -0.180000
    2630 C           20.2420    32.3280    16.5682 opls_157      1 RES        0.145000
    2631 O           20.3840    32.4632    17.9645 opls_154      1 RES       -0.683000
    2632 H           21.2012    32.0631    18.2195 opls_155      1 RES        0.418000
    2633 H           19.2282    32.5434    16.2306 opls_140      1 RES        0.060000
    2634 H           20.8470    33.1428    16.1706 opls_140      1 RES        0.060000
    2635 H           21.6551    30.9829    15.9232 opls_140      1 RES        0.060000
    2636 H           20.1885    30.8766    14.9545 opls_140      1 RES        0.060000
    2637 H           20.2038    30.0802    16.5097 opls_140      1 RES        0.060000
    2638 C           24.0804    24.3246     2.4629 opls_135      1 RES       -0.180000
    2639 C           24.0345    24.2711     3.9902 opls_157      1 RES        0.145000
    2640 O           24.7338    25.2818     4.6814 opls_154      1 RES       -0.683000
    2641 H           24.5392    26.1105     4.2710 opls_155      1 RES        0.418000
    2642 H           24.3899    23.2722     4.2433 opls_140      1 RES        0.060000
    2643 H           23.0299    24.3238     4.4098 opls_140      1 RES        0.060000
    2644 H           23.3304    25.0832     2.2389 opls_140      1 RES        0.060000
    2645 H           23.7403    23.3833     2.0309 opls_140      1 RES        0.060000
    2646 H           25.0402    24.5505     1.9983 opls_140      1 RES        0.060000
    2647 C           21.4434     5.3354     6.1921 opls_135      1 RES       -0.180000
    2648 C           21.0120     6.5476     5.3660 opls_157      1 RES        0.145000
    2649 O           22.0255     7.4544     4.9939 opls_154      1 RES       -0.683000
    2650 H           22.7667     6.9587     4.6809 opls_155      1 RES        0.418000
    2651 H           20.2274     7.0204     5.9566 opls_140      1 RES        0.060000
    2652 H           20.5346     6.2965     4.4188 opls_140      1 RES        0.060000
    2653 H           21.8446     4.6699     5.4277 opls_140      1 RES        0.060000
    2654 H           20.5800     4.8440     6.6406 opls_140      1 RES        0.060000
    2655 H           22.1565     5.5070     6.9984 opls_140      1 RES        0.060000
    2656 C           22.3255    33.2410    28.1769 opls_135      1 RES       -0.180000
    2657 C           22.6234    33.5345    26.7062 opls_157      1 RES        0.145000
    2658 O           21.5197    33.8449    25.8854 opls_154      1 RES       -0.683000
    2659 H           20.9705    34.4599    26.3472 opls_155      1 RES        0.418000
    2660 H           23.1702    32.6597    26.3543 opls_140      1 RES        0.060000
    2661 H           23.3034    34.3711    26.5458 opls_140      1 RES        0.060000
    2662 H           22.2192    34.2431    28.5922 opls_140      1 RES        0.060000
    2663 H           23.1817    32.7701    28.6601 opls_140      1 RES        0.060000
    2664 H           21.4613    32.6144    28.3975 opls_140      1 RES        0.060000
    2665 C           33.4199    24.4289    16.5419 opls_135      1 RES       -0.180000
    2666 C           32.8947    24.4012    15.1062 opls_157      1 RES        0.145000
    2667 O           33.1410    25.5447    14.3188 opls_154      1 RES       -0.683000
    2668 H           34.0408    25.8040    14.4459 opls_155      1 RES        0.418000
    2669 H           31.8309    24.1853    15.2044 opls_140      1 RES        0.060000
    2670 H           33.2898    23.5853    14.5009 opls_140      1 RES        0.060000
    2671 H           34.4729    24.1837    16.4040 opls_140      1 RES        0.060000
    2672 H           32.9686    23.6341    17.1358 opls_140      1 RES        0.060000
    2673 H           33.2866    25.3519    17.1061 opls_140      1 RES        0.060000
    2674 C           30.3887    10.2230    32.4077 opls_135      1 RES       -0.180000
    2675 C           30.5358    10.9615    33.7384 opls_157      1 RES        0.145000
    2676 O           29.3506    11.2069    34.4617 opls_154      1 RES       -0.683000
    2677 H           28.8332    10.4162    34.4601 opls_155      1 RES        0.418000
    2678 H           31.0681    11.8793    33.4886 opls_140      1 RES        0.060000
    2679 H           31.1758    10.4565    34.4619 opls_140      1 RES        0.060000
    2680 H           30.2976     9.1862    32.7314 opls_140      1 RES        0.060000
    2681 H           31.2991    10.3071    31.8142 opls_140      1 RES        0.060000
    2682 H           29.5659    10.5210    31.7579 opls_140      1 RES        0.060000
    2683 C            6.1705    32.3298    33.7404 opls_135      1 RES       -0.180000
    2684 C            6.6242    32.6032    32.3062 opls_157      1 RES        0.145000
    2685 O            5.7451    32.2087    31.2768 opls_154      1 RES       -0.683000
    2686 H            4.8711    32.4792    31.5135 opls_155      1 RES        0.418000
    2687 H            7.5991    32.1220    32.2275 opls_140      1 RES        0.060000
    2688 H            6.8144    33.6545    32.0898 opls_140      1 RES        0.060000
    2689 H            5.4847    33.1569    33.9240 opls_140      1 RES        0.060000
    2690 H            7.0034    32.4278    34.4366 opls_140      1 RES        0.060000
    2691 H            5.7079    31.3639    33.9438 opls_140      1 RES        0.060000
    2692 C           15.9272    33.2939    30.3426 opls_135      1 RES       -0.180000
    2693 C           15.2594    31.9236    30.4618 opls_157      1 RES        0.145000
    2694 O           14.1734    31.8231    31.3555 opls_154      1 RES       -0.683000
    2695 H           13.6095    32.5696    31.2219 opls_155      1 RES        0.418000
    2696 H           16.0707    31.2411    30.7149 opls_140      1 RES        0.060000
    2697 H           14.8548    31.5401    29.5252 opls_140      1 RES        0.060000
    2698 H           15.2472    33.8212    29.6736 opls_140      1 RES        0.060000
    2699 H           16.8915    33.2137    29.8407 opls_140      1 RES        0.060000
    2700 H           16.1025    33.8475    31.2650 opls_140      1 RES        0.060000
    2701 C           29.5741    29.3481    22.3007 opls_135      1 RES       -0.180000
    2702 C           29.8137    29.9911    20.9344 opls_157      1 RES        0.145000
    2703 O           31.1320    29.9486    20.4360 opls_154      1 RES       -0.683000
    2704 H           31.4716    29.0770    20.5699 opls_155      1 RES        0.418000
    2705 H           29.4413    31.0102    21.0386 opls_140      1 RES        0.060000
    2706 H           29.2220    29.5597    20.1269 opls_140      1 RES        0.060000
    2707 H           29.5103    28.2901    22.0465 opls_140      1 RES        0.060000
    2708 H           28.6096    29.6507    22.7086 opls_140      1 RES        0.060000
    2709 H           30.3132    29.5365    23.0793 opls_140      1 RES        0.060000
    2710 C            6.3667    18.7454    30.4045 opls_135      1 RES       -0.180000
    2711 C            6.5401    18.1778    28.9954 opls_157      1 RES        0.145000
    2712 O            5.8505    18.8367    27.9570 opls_154      1 RES       -0.683000
    2713 H            5.9693    19.7678    28.0665 opls_155      1 RES        0.418000
    2714 H            6.2568    17.1288    29.0825 opls_140      1 RES        0.060000
    2715 H            7.5719    18.1594    28.6444 opls_140      1 RES        0.060000
    2716 H            7.0571    19.5888    30.3968 opls_140      1 RES        0.060000
    2717 H            6.7166    18.0363    31.1547 opls_140      1 RES        0.060000
    2718 H            5.3620    19.0437    30.7041 opls_140      1 RES        0.060000
    2719 C           23.8023    25.4016    21.2407 opls_135      1 RES       -0.180000
    2720 C           22.8493    25.9368    20.1714 opls_157      1 RES        0.145000
    2721 O           23.2824    25.8450    18.8327 opls_154      1 RES       -0.683000
    2722 H           23.6455    24.9832    18.6970 opls_155      1 RES        0.418000
    2723 H           22.6439    26.9640    20.4725 opls_140      1 RES        0.060000
    2724 H           21.8740    25.4504    20.1576 opls_140      1 RES        0.060000
    2725 H           23.6213    24.3279    21.1903 opls_140      1 RES        0.060000
    2726 H           23.5045    25.7427    22.2322 opls_140      1 RES        0.060000
    2727 H           24.8601    25.6422    21.1343 opls_140      1 RES        0.060000
    2728 C           11.1264     3.0360     8.9966 opls_135      1 RES       -0.180000
    2729 C           10.6006     3.2495     7.5769 opls_157      1 RES        0.145000
    2730 O           11.5613     3.5019     6.5762 opls_154      1 RES       -0.683000
    2731 H           12.2726     2.8898     6.6870 opls_155      1 RES        0.418000
    2732 H            9.8742     4.0570     7.6690 opls_140      1 RES        0.060000
    2733 H           10.0330     2.4084     7.1788 opls_140      1 RES        0.060000
    2734 H           11.4560     1.9975     8.9637 opls_140      1 RES        0.060000
    2735 H           10.3181     3.1052     9.7247 opls_140      1 RES        0.060000
    2736 H           11.9151     3.7033     9.3442 opls_140      1 RES        0.060000
    2737 C           24.4610     4.6555     2.8612 opls_135      1 RES       -0.180000
    2738 C           24.1424     3.3198     3.5338 opls_157      1 RES        0.145000
    2739 O           23.8864     2.2259     2.6817 opls_154      1 RES       -0.683000
    2740 H           24.5403     2.2222     1.9995 opls_155      1 RES        0.418000
    2741 H           23.3041     3.5361     4.1960 opls_140      1 RES        0.060000
    2742 H           24.9294     2.9514     4.1919 opls_140      1 RES        0.060000
    2743 H           25.5120     4.5335     2.5991 opls_140      1 RES        0.060000
    2744 H           24.3895     5.4764     3.5746 opls_140      1 RES        0.060000
    2745 H           23.8563     4.9392     1.9998 opls_140      1 RES        0.060000
    2746 C           24.8254     5.1684    27.5829 opls_135      1 RES       -0.180000
    2747 C           26.0654     5.8058    28.2106 opls_157      1 RES        0.145000
    2748 O           27.2808     5.1062    28.0645 opls_154      1 RES       -0.683000
    2749 H           27.3499     4.8160    27.1678 opls_155      1 RES        0.418000
    2750 H           25.7981     5.9612    29.2558 opls_140      1 RES        0.060000
    2751 H           26.2972     6.8012    27.8315 opls_140      1 RES        0.060000
    2752 H           24.9319     5.4471    26.5346 opls_140      1 RES        0.060000
    2753 H           23.9155     5.6353    27.9602 opls_140      1 RES        0.060000
    2754 H           24.6973     4.0932    27.7080 opls_140      1 RES        0.060000
    2755 C           24.9452    28.7386     3.0262 opls_135      1 RES       -0.180000
    2756 C           23.7026    27.9388     2.6335 opls_157      1 RES        0.145000
    2757 O           22.8998    27.4563     3.6875 opls_154      1 RES       -0.683000
    2758 H           22.7859    28.1528     4.3161 opls_155      1 RES        0.418000
    2759 H           24.0784    27.1378     1.9969 opls_140      1 RES        0.060000
    2760 H           22.9983    28.4856     2.0066 opls_140      1 RES        0.060000
    2761 H           24.5253    29.7216     3.2395 opls_140      1 RES        0.060000
    2762 H           25.6233    28.8434     2.1792 opls_140      1 RES        0.060000
    2763 H           25.5419    28.3612     3.8567 opls_140      1 RES        0.060000
    2764 C           24.0056     3.5981    23.3497 opls_135      1 RES       -0.180000
    2765 C           23.2849     4.0825    22.0912 opls_157      1 RES        0.145000
    2766 O           22.5858     5.3029    22.1909 opls_154      1 RES       -0.683000
    2767 H           23.1374     5.9246    22.6405 opls_155      1 RES        0.418000
    2768 H           22.6364     3.2538    21.8070 opls_140      1 RES        0.060000
    2769 H           23.9379     4.2325    21.2315 opls_140      1 RES        0.060000
    2770 H           24.9181     4.1940    23.3332 opls_140      1 RES        0.060000
    2771 H           24.2910     2.5504    23.2549 opls_140      1 RES        0.060000
    2772 H           23.4752     3.6907    24.2975 opls_140      1 RES        0.060000
    2773 C           25.9087    10.3538    15.7988 opls_135      1 RES       -0.180000
    2774 C           25.2144    11.2572    16.8185 opls_157      1 RES        0.145000
    2775 O           24.9422    10.6946    18.0824 opls_154      1 RES       -0.683000
    2776 H           25.7113    10.2272    18.3707 opls_155      1 RES        0.418000
    2777 H           24.3120    11.6022    16.3138 opls_140      1 RES        0.060000
    2778 H           25.7648    12.1671    17.0578 opls_140      1 RES        0.060000
    2779 H           26.9497    10.4092    16.1170 opls_140      1 RES        0.060000
    2780 H           25.8444    10.7780    14.7968 opls_140      1 RES        0.060000
    2781 H           25.5598     9.3239    15.7228 opls_140      1 RES        0.060000
    2782 C           24.4235     8.9930    33.4240 opls_135      1 RES       -0.180000
    2783 C           23.2077     9.8673    33.1148 opls_157      1 RES        0.145000
    2784 O           21.9581     9.3997    33.5707 opls_154      1 RES       -0.683000
    2785 H           22.0606     9.0997    34.4610 opls_155      1 RES        0.418000
    2786 H           23.2316    10.0027    32.0335 opls_140      1 RES        0.060000
    2787 H           23.2667    10.8761    33.5232 opls_140      1 RES        0.060000
    2788 H           24.6340     9.2543    34.4610 opls_140      1 RES        0.060000
    2789 H           25.2819     9.2955    32.8242 opls_140      1 RES        0.060000
    2790 H           24.3139     7.9170    33.2887 opls_140      1 RES        0.060000
    2791 C           27.3444    22.2542    30.2276 opls_135      1 RES       -0.180000
    2792 C           26.5772    21.8594    31.4899 opls_157      1 RES        0.145000
    2793 O           25.7829    22.8592    32.0878 opls_154      1 RES       -0.683000
    2794 H           25.2984    23.2998    31.4066 opls_155      1 RES        0.418000
    2795 H           27.3386    21.4727    32.1673 opls_140      1 RES        0.060000
    2796 H           25.8822    21.0314    31.3504 opls_140      1 RES        0.060000
    2797 H           26.5722    22.1867    29.4613 opls_140      1 RES        0.060000
    2798 H           28.1114    21.5162    29.9925 opls_140      1 RES        0.060000
    2799 H           27.8377    23.2262    30.2248 opls_140      1 RES        0.060000
    2800 C           25.3396    16.3355     7.4360 opls_135      1 RES       -0.180000
    2801 C           24.1240    16.4046     8.3608 opls_157      1 RES        0.145000
    2802 O           22.9805    15.6834     7.9600 opls_154      1 RES       -0.683000
    2803 H           23.2565    14.8271     7.6708 opls_155      1 RES        0.418000
    2804 H           23.9242    17.4698     8.4766 opls_140      1 RES        0.060000
    2805 H           24.3105    16.0446     9.3726 opls_140      1 RES        0.060000
    2806 H           25.7757    15.3733     7.7046 opls_140      1 RES        0.060000
    2807 H           26.0636    17.1104     7.6876 opls_140      1 RES        0.060000
    2808 H           25.1586    16.4160     6.3641 opls_140      1 RES        0.060000
    2809 C           22.7477     2.8021    16.6599 opls_135      1 RES       -0.180000
    2810 C           24.2635     2.9205    16.8215 opls_157      1 RES        0.145000
    2811 O           24.7276     3.6347    17.9452 opls_154      1 RES       -0.683000
    2812 H           24.2322     3.3547    18.6996 opls_155      1 RES        0.418000
    2813 H           24.6094     3.3526    15.8824 opls_140      1 RES        0.060000
    2814 H           24.7816     1.9644    16.8956 opls_140      1 RES        0.060000
    2815 H           22.5075     1.9939    17.3507 opls_140      1 RES        0.060000
    2816 H           22.4892     2.4683    15.6550 opls_140      1 RES        0.060000
    2817 H           22.1523     3.6944    16.8533 opls_140      1 RES        0.060000
    2818 C            5.7052     8.4726    28.3842 opls_135      1 RES       -0.180000
    2819 C            6.8455     7.5399    27.9748 opls_157      1 RES        0.145000
    2820 O            6.6089     6.1556    28.1014 opls_154      1 RES       -0.683000
    2821 H            5.7503     5.9686    27.7536 opls_155      1 RES        0.418000
    2822 H            7.7000     7.8713    28.5648 opls_140      1 RES        0.060000
    2823 H            7.1634     7.6502    26.9380 opls_140      1 RES        0.060000
    2824 H            5.0582     8.4398    27.5077 opls_140      1 RES        0.060000
    2825 H            6.0621     9.4965    28.4958 opls_140      1 RES        0.060000
    2826 H            5.1646     8.2309    29.2993 opls_140      1 RES        0.060000
    2827 C           13.5447    17.3887     5.6366 opls_135      1 RES       -0.180000
    2828 C           13.7321    16.2362     4.6494 opls_157      1 RES        0.145000
    2829 O           15.0597    15.8839     4.3308 opls_154      1 RES       -0.683000
    2830 H           15.5587    15.8527     5.1326 opls_155      1 RES        0.418000
    2831 H           13.1570    16.5279     3.7706 opls_140      1 RES        0.060000
    2832 H           13.2889    15.2941     4.9722 opls_140      1 RES        0.060000
    2833 H           13.7101    16.8967     6.5951 opls_140      1 RES        0.060000
    2834 H           12.5163    17.7497     5.6214 opls_140      1 RES        0.060000
    2835 H           14.1826    18.2636     5.5119 opls_140      1 RES        0.060000
    2836 C           15.8964    21.6257    14.9821 opls_135      1 RES       -0.180000
    2837 C           14.8979    21.5553    16.1379 opls_157      1 RES        0.145000
    2838 O           14.3753    22.7807    16.5999 opls_154      1 RES       -0.683000
    2839 H           14.1330    23.3014    15.8495 opls_155      1 RES        0.418000
    2840 H           15.4187    21.0039    16.9207 opls_140      1 RES        0.060000
    2841 H           14.0080    20.9630    15.9249 opls_140      1 RES        0.060000
    2842 H           15.2392    21.7419    14.1202 opls_140      1 RES        0.060000
    2843 H           16.4278    20.6807    14.8698 opls_140      1 RES        0.060000
    2844 H           16.6562    22.4061    15.0236 opls_140      1 RES        0.060000
    2845 C           13.5963     8.6478    16.7775 opls_135      1 RES       -0.180000
    2846 C           13.5779     8.5506    18.3033 opls_157      1 RES        0.145000
    2847 O           13.4235     7.2621    18.8547 opls_154      1 RES       -0.683000
    2848 H           13.9951     6.6703    18.3900 opls_155      1 RES        0.418000
    2849 H           12.7876     9.2336    18.6149 opls_140      1 RES        0.060000
    2850 H           14.4789     8.9282    18.7866 opls_140      1 RES        0.060000
    2851 H           14.6203     8.3569    16.5432 opls_140      1 RES        0.060000
    2852 H           13.4613     9.6794    16.4525 opls_140      1 RES        0.060000
    2853 H           12.8673     8.0515    16.2289 opls_140      1 RES        0.060000
    2854 C           23.4934     8.1732    17.6697 opls_135      1 RES       -0.180000
    2855 C           22.6543     9.3756    18.1033 opls_157      1 RES        0.145000
    2856 O           22.7839     9.7884    19.4453 opls_154      1 RES       -0.683000
    2857 H           23.7031     9.8002    19.6643 opls_155      1 RES        0.418000
    2858 H           21.6297     9.1047    17.8488 opls_140      1 RES        0.060000
    2859 H           22.8506    10.2858    17.5366 opls_140      1 RES        0.060000
    2860 H           24.4704     8.6262    17.5012 opls_140      1 RES        0.060000
    2861 H           23.1417     7.7776    16.7168 opls_140      1 RES        0.060000
    2862 H           23.5487     7.3277    18.3554 opls_140      1 RES        0.060000
    2863 C           30.3087    23.5674     4.5523 opls_135      1 RES       -0.180000
    2864 C           30.7574    22.3363     5.3403 opls_157      1 RES        0.145000
    2865 O           29.7932    21.3281     5.5447 opls_154      1 RES       -0.683000
    2866 H           29.3427    21.1787     4.7275 opls_155      1 RES        0.418000
    2867 H           31.1480    22.7341     6.2769 opls_140      1 RES        0.060000
    2868 H           31.5955    21.8007     4.8943 opls_140      1 RES        0.060000
    2869 H           30.3695    23.2136     3.5231 opls_140      1 RES        0.060000
    2870 H           31.0228    24.3830     4.6662 opls_140      1 RES        0.060000
    2871 H           29.3268    23.9799     4.7843 opls_140      1 RES        0.060000
    2872 C            6.9505    31.6867    29.2050 opls_135      1 RES       -0.180000
    2873 C            7.7729    31.6608    27.9163 opls_157      1 RES        0.145000
    2874 O            7.0577    31.7622    26.7055 opls_154      1 RES       -0.683000
    2875 H            6.4169    32.4508    26.7964 opls_155      1 RES        0.418000
    2876 H            8.3568    30.7424    27.9787 opls_140      1 RES        0.060000
    2877 H            8.5136    32.4571    27.8422 opls_140      1 RES        0.060000
    2878 H            6.7618    32.7526    29.3334 opls_140      1 RES        0.060000
    2879 H            7.5468    31.3502    30.0531 opls_140      1 RES        0.060000
    2880 H            6.0291    31.1046    29.2229 opls_140      1 RES        0.060000
    2881 C           30.9093    20.8062    25.3548 opls_135      1 RES       -0.180000
    2882 C           31.7552    21.8264    26.1173 opls_157      1 RES        0.145000
    2883 O           31.8303    21.6688    27.5164 opls_154      1 RES       -0.683000
    2884 H           31.9806    20.7549    27.7041 opls_155      1 RES        0.418000
    2885 H           31.3471    22.7952    25.8293 opls_140      1 RES        0.060000
    2886 H           32.8000    21.8615    25.8084 opls_140      1 RES        0.060000
    2887 H           31.5868    19.9552    25.2852 opls_140      1 RES        0.060000
    2888 H           30.7042    21.1515    24.3415 opls_140      1 RES        0.060000
    2889 H           29.9487    20.5282    25.7884 opls_140      1 RES        0.060000
    2890 C           15.5593     3.9690     8.5310 opls_135      1 RES       -0.180000
    2891 C           14.8947     3.3085     7.3227 opls_157      1 RES        0.145000
    2892 O           14.1430     2.1418     7.5715 opls_154      1 RES       -0.683000
    2893 H           13.6044     2.2930     8.3331 opls_155      1 RES        0.418000
    2894 H           15.7087     3.1364     6.6185 opls_140      1 RES        0.060000
    2895 H           14.1961     3.9527     6.7888 opls_140      1 RES        0.060000
    2896 H           14.7304     4.5221     8.9727 opls_140      1 RES        0.060000
    2897 H           16.3103     4.6926     8.2139 opls_140      1 RES        0.060000
    2898 H           16.0448     3.3148     9.2552 opls_140      1 RES        0.060000
    2899 C            8.0662    28.6567     4.7575 opls_135      1 RES       -0.180000
    2900 C            8.7263    27.8047     5.8420 opls_157      1 RES        0.145000
    2901 O            8.5153    28.2037     7.1778 opls_154      1 RES       -0.683000
    2902 H            7.5988    28.4074     7.2851 opls_155      1 RES        0.418000
    2903 H            9.7830    27.7869     5.5754 opls_140      1 RES        0.060000
    2904 H            8.4202    26.7586     5.8372 opls_140      1 RES        0.060000
    2905 H            7.0405    28.2881     4.7711 opls_140      1 RES        0.060000
    2906 H            8.4871    28.4322     3.7774 opls_140      1 RES        0.060000
    2907 H            8.1119    29.7395     4.8743 opls_140      1 RES        0.060000
    2908 C           28.2566    16.5671    21.0016 opls_135      1 RES       -0.180000
    2909 C           28.0721    16.5234    22.5188 opls_157      1 RES        0.145000
    2910 O           28.3701    17.7050    23.2281 opls_154      1 RES       -0.683000
    2911 H           27.9846    18.4335    22.7658 opls_155      1 RES        0.418000
    2912 H           28.6765    15.6778    22.8472 opls_140      1 RES        0.060000
    2913 H           27.0586    16.2825    22.8395 opls_140      1 RES        0.060000
    2914 H           27.3445    17.0669    20.6756 opls_140      1 RES        0.060000
    2915 H           28.2532    15.5616    20.5809 opls_140      1 RES        0.060000
    2916 H           29.1506    17.0603    20.6199 opls_140      1 RES        0.060000
    2917 C            4.2490    26.7834    21.7654 opls_135      1 RES       -0.180000
    2918 C            4.1225    27.8554    20.6826 opls_157      1 RES        0.145000
    2919 O            5.2952    28.1775    19.9691 opls_154      1 RES       -0.683000
    2920 H            5.7289    27.3720    19.7323 opls_155      1 RES        0.418000
    2921 H            3.6976    28.7183    21.1953 opls_140      1 RES        0.060000
    2922 H            3.4045    27.6163    19.8981 opls_140      1 RES        0.060000
    2923 H            4.2202    25.8642    21.1803 opls_140      1 RES        0.060000
    2924 H            3.3777    26.7880    22.4202 opls_140      1 RES        0.060000
    2925 H            5.1245    26.8270    22.4134 opls_140      1 RES        0.060000
    2926 C           15.1740    17.0496    13.5628 opls_135      1 RES       -0.180000
    2927 C           15.7843    18.3543    14.0756 opls_157      1 RES        0.145000
    2928 O           16.0544    19.3491    13.1136 opls_154      1 RES       -0.683000
    2929 H           15.3069    19.4170    12.5394 opls_155      1 RES        0.418000
    2930 H           16.6783    18.0474    14.6186 opls_140      1 RES        0.060000
    2931 H           15.1742    18.8735    14.8147 opls_140      1 RES        0.060000
    2932 H           14.1230    17.3173    13.4536 opls_140      1 RES        0.060000
    2933 H           15.2407    16.2664    14.3180 opls_140      1 RES        0.060000
    2934 H           15.5857    16.6310    12.6444 opls_140      1 RES        0.060000
    2935 C           23.7466     8.7747     6.7893 opls_135      1 RES       -0.180000
    2936 C           24.9197     7.8856     7.2031 opls_157      1 RES        0.145000
    2937 O           24.6666     6.5011     7.2888 opls_154      1 RES       -0.683000
    2938 H           24.1751     6.2417     6.5245 opls_155      1 RES        0.418000
    2939 H           25.2648     8.3044     8.1484 opls_140      1 RES        0.060000
    2940 H           25.7827     7.9462     6.5400 opls_140      1 RES        0.060000
    2941 H           23.7345     8.6466     5.7069 opls_140      1 RES        0.060000
    2942 H           23.9613     9.8228     6.9976 opls_140      1 RES        0.060000
    2943 H           22.7753     8.5621     7.2359 opls_140      1 RES        0.060000
    2944 C            6.2215    13.0495    13.0962 opls_135      1 RES       -0.180000
    2945 C            6.8822    13.0695    11.7175 opls_157      1 RES        0.145000
    2946 O            6.8237    14.2842    11.0038 opls_154      1 RES       -0.683000
    2947 H            7.0388    14.9873    11.5974 opls_155      1 RES        0.418000
    2948 H            6.4171    12.2460    11.1754 opls_140      1 RES        0.060000
    2949 H            7.9457    12.8309    11.7275 opls_140      1 RES        0.060000
    2950 H            6.9798    13.5240    13.7190 opls_140      1 RES        0.060000
    2951 H            6.0928    12.0267    13.4504 opls_140      1 RES        0.060000
    2952 H            5.2510    13.5361    13.1935 opls_140      1 RES        0.060000
    2953 C           29.9801    18.3862    27.4685 opls_135      1 RES       -0.180000
    2954 C           29.4374    19.2474    28.6094 opls_157      1 RES        0.145000
    2955 O           30.1288    19.1832    29.8366 opls_154      1 RES       -0.683000
    2956 H           31.0553    19.2350    29.6578 opls_155      1 RES        0.418000
    2957 H           28.3921    18.9535    28.7053 opls_140      1 RES        0.060000
    2958 H           29.4076    20.3145    28.3893 opls_140      1 RES        0.060000
    2959 H           30.8111    18.9895    27.1032 opls_140      1 RES        0.060000
    2960 H           29.2502    18.3035    26.6633 opls_140      1 RES        0.060000
    2961 H           30.2901    17.3700    27.7120 opls_140      1 RES        0.060000
    2962 C           24.8659    17.7474    22.3223 opls_135      1 RES       -0.180000
    2963 C           24.6824    16.6305    21.2942 opls_157      1 RES        0.145000
    2964 O           24.4584    17.0275    19.9599 opls_154      1 RES       -0.683000
    2965 H           25.0717    17.7146    19.7482 opls_155      1 RES        0.418000
    2966 H           23.8691    16.0215    21.6889 opls_140      1 RES        0.060000
    2967 H           25.5294    15.9487    21.2184 opls_140      1 RES        0.060000
    2968 H           25.9066    18.0316    22.1665 opls_140      1 RES        0.060000
    2969 H           24.7755    17.3598    23.3371 opls_140      1 RES        0.060000
    2970 H           24.1950    18.6039    22.2563 opls_140      1 RES        0.060000
    2971 C           10.8773    28.8141    11.6223 opls_135      1 RES       -0.180000
    2972 C           10.1816    29.9058    12.4361 opls_157      1 RES        0.145000
    2973 O           10.7705    30.2490    13.6704 opls_154      1 RES       -0.683000
    2974 H           11.7028    30.3331    13.5409 opls_155      1 RES        0.418000
    2975 H            9.1552    29.5564    12.5480 opls_140      1 RES        0.060000
    2976 H           10.0956    30.8621    11.9202 opls_140      1 RES        0.060000
    2977 H           11.6916    29.3649    11.1516 opls_140      1 RES        0.060000
    2978 H           10.2251    28.4444    10.8311 opls_140      1 RES        0.060000
    2979 H           11.2364    27.9385    12.1631 opls_140      1 RES        0.060000
    2980 C           17.2723    29.0559    13.1033 opls_135      1 RES       -0.180000
    2981 C           18.0477    29.3925    14.3773 opls_157      1 RES        0.145000
    2982 O           17.5457    28.8626    15.5838 opls_154      1 RES       -0.683000
    2983 H           17.3229    27.9557    15.4392 opls_155      1 RES        0.418000
    2984 H           18.0991    30.4812    14.3909 opls_140      1 RES        0.060000
    2985 H           19.0872    29.0647    14.3682 opls_140      1 RES        0.060000
    2986 H           17.6258    28.0491    12.8808 opls_140      1 RES        0.060000
    2987 H           17.5760    29.7040    12.2812 opls_140      1 RES        0.060000
    2988 H           16.1845    29.1047    13.1515 opls_140      1 RES        0.060000
    2989 C            4.1213    20.4073     3.0503 opls_135      1 RES       -0.180000
    2990 C            4.4038    18.9361     3.3565 opls_157      1 RES        0.145000
    2991 O            3.4211    18.0059     2.9602 opls_154      1 RES       -0.683000
    2992 H            3.1470    18.2205     2.0816 opls_155      1 RES        0.418000
    2993 H            4.5942    18.9080     4.4294 opls_140      1 RES        0.060000
    2994 H            5.3167    18.5518     2.9016 opls_140      1 RES        0.060000
    2995 H            4.3915    20.4766     1.9967 opls_140      1 RES        0.060000
    2996 H            4.7947    21.0566     3.6097 opls_140      1 RES        0.060000
    2997 H            3.1114    20.7726     3.2371 opls_140      1 RES        0.060000
    2998 C            4.6200     6.4040    23.2845 opls_135      1 RES       -0.180000
    2999 C            5.7192     6.4670    24.3454 opls_157      1 RES        0.145000
    3000 O            5.2999     6.5744    25.6873 opls_154      1 RES       -0.683000
    3001 H            4.5967     5.9591    25.8283 opls_155      1 RES        0.418000
    3002 H            6.3521     7.3001    24.0396 opls_140      1 RES        0.060000
    3003 H            6.3825     5.6021    24.3542 opls_140      1 RES        0.060000
    3004 H            4.3122     5.3597    23.3371 opls_140      1 RES        0.060000
    3005 H            5.0297     6.5800    22.2898 opls_140      1 RES        0.060000
    3006 H            3.7757     7.0841    23.3972 opls_140      1 RES        0.060000
    3007 C           29.8022    11.1837    20.5445 opls_135      1 RES       -0.180000
    3008 C           28.4443    11.7213    20.0920 opls_157      1 RES        0.145000
    3009 O           27.3218    10.9086    20.3523 opls_154      1 RES       -0.683000
    3010 H           27.3871    10.5881    21.2389 opls_155      1 RES        0.418000
    3011 H           28.5690    11.9300    19.0295 opls_140      1 RES        0.060000
    3012 H           28.1728    12.6799    20.5341 opls_140      1 RES        0.060000
    3013 H           29.7985    11.4218    21.6081 opls_140      1 RES        0.060000
    3014 H           30.6152    11.7430    20.0815 opls_140      1 RES        0.060000
    3015 H           30.0087    10.1288    20.3635 opls_140      1 RES        0.060000
    3016 C           16.0051    16.3332    17.1657 opls_135      1 RES       -0.180000
    3017 C           14.6056    15.7976    16.8617 opls_157      1 RES        0.145000
    3018 O           13.6260    16.7479    16.5078 opls_154      1 RES       -0.683000
    3019 H           14.0058    17.3465    15.8829 opls_155      1 RES        0.418000
    3020 H           14.3293    15.2258    17.7476 opls_140      1 RES        0.060000
    3021 H           14.5700    15.0781    16.0436 opls_140      1 RES        0.060000
    3022 H           16.4160    16.4768    16.1664 opls_140      1 RES        0.060000
    3023 H           16.6093    15.5779    17.6682 opls_140      1 RES        0.060000
    3024 H           16.0747    17.2382    17.7692 opls_140      1 RES        0.060000
    3025 C           14.6815     3.0435    27.5731 opls_135      1 RES       -0.180000
    3026 C           15.8786     3.3351    28.4784 opls_157      1 RES        0.145000
    3027 O           15.7908     2.8828    29.8111 opls_154      1 RES       -0.683000
    3028 H           15.4597     1.9977    29.8025 opls_155      1 RES        0.418000
    3029 H           16.0184     4.4141    28.4140 opls_140      1 RES        0.060000
    3030 H           16.8192     2.9109    28.1269 opls_140      1 RES        0.060000
    3031 H           14.8528     2.0031    27.2970 opls_140      1 RES        0.060000
    3032 H           14.7285     3.6410    26.6627 opls_140      1 RES        0.060000
    3033 H           13.6872     3.1954    27.9931 opls_140      1 RES        0.060000
    3034 C           19.1971    13.7198     2.5997 opls_135      1 RES       -0.180000
    3035 C           18.4761    13.3973     3.9089 opls_157      1 RES        0.145000
    3036 O           18.2105    14.4816     4.7702 opls_154      1 RES       -0.683000
    3037 H           17.8696    15.1948     4.2524 opls_155      1 RES        0.418000
    3038 H           19.0905    12.6313     4.3821 opls_140      1 RES        0.060000
    3039 H           17.4999    12.9302     3.7787 opls_140      1 RES        0.060000
    3040 H           18.3839    14.0949     1.9783 opls_140      1 RES        0.060000
    3041 H           19.5801    12.8121     2.1334 opls_140      1 RES        0.060000
    3042 H           20.0309    14.4203     2.6465 opls_140      1 RES        0.060000
    3043 C           12.3806    33.2210    28.6064 opls_135      1 RES       -0.180000
    3044 C           13.3688    33.1848    27.4403 opls_157      1 RES        0.145000
    3045 O           13.0367    32.3504    26.3533 opls_154      1 RES       -0.683000
    3046 H           12.1250    32.4846    26.1443 opls_155      1 RES        0.418000
    3047 H           14.3230    32.9167    27.8939 opls_140      1 RES        0.060000
    3048 H           13.5452    34.1537    26.9730 opls_140      1 RES        0.060000
    3049 H           11.6157    33.9034    28.2356 opls_140      1 RES        0.060000
    3050 H           12.8345    33.6770    29.4862 opls_140      1 RES        0.060000
    3051 H           11.9562    32.2716    28.9328 opls_140      1 RES        0.060000
    3052 C           31.1889     7.9015    29.8278 opls_135      1 RES       -0.180000
    3053 C           30.8113     7.0732    31.0563 opls_157      1 RES        0.145000
    3054 O           31.7418     7.0493    32.1154 opls_154      1 RES       -0.683000
    3055 H           32.0439     7.9322    32.2646 opls_155      1 RES        0.418000
    3056 H           30.6009     6.0777    30.6653 opls_140      1 RES        0.060000
    3057 H           29.8846     7.3847    31.5383 opls_140      1 RES        0.060000
    3058 H           30.9418     8.9129    30.1504 opls_140      1 RES        0.060000
    3059 H           30.5469     7.6562    28.9818 opls_140      1 RES        0.060000
    3060 H           32.2158     7.8270    29.4700 opls_140      1 RES        0.060000
    3061 C           20.9151    24.6260    14.2629 opls_135      1 RES       -0.180000
    3062 C           22.1923    25.1865    13.6365 opls_157      1 RES        0.145000
    3063 O           22.0297    26.1295    12.6009 opls_154      1 RES       -0.683000
    3064 H           21.3691    26.7508    12.8668 opls_155      1 RES        0.418000
    3065 H           22.7517    24.3080    13.3148 opls_140      1 RES        0.060000
    3066 H           22.8512    25.6934    14.3415 opls_140      1 RES        0.060000
    3067 H           20.6292    25.4232    14.9491 opls_140      1 RES        0.060000
    3068 H           21.1311    23.7379    14.8567 opls_140      1 RES        0.060000
    3069 H           20.1022    24.3580    13.5880 opls_140      1 RES        0.060000
    3070 C            8.4970    27.7171    20.0223 opls_135      1 RES       -0.180000
    3071 C            7.6946    28.7150    20.8579 opls_157      1 RES        0.145000
    3072 O            6.8112    28.1748    21.8150 opls_154      1 RES       -0.683000
    3073 H            7.2618    27.4855    22.2785 opls_155      1 RES        0.418000
    3074 H            7.1831    29.3406    20.1264 opls_140      1 RES        0.060000
    3075 H            8.3058    29.4069    21.4373 opls_140      1 RES        0.060000
    3076 H            9.3028    27.4453    20.7042 opls_140      1 RES        0.060000
    3077 H            8.9445    28.2063    19.1572 opls_140      1 RES        0.060000
    3078 H            7.9692    26.8412    19.6451 opls_140      1 RES        0.060000
    3079 C           16.6839    12.7481     9.3961 opls_135      1 RES       -0.180000
    3080 C           15.9321    12.2482    10.6301 opls_157      1 RES        0.145000
    3081 O           14.5239    12.2485    10.5579 opls_154      1 RES       -0.683000
    3082 H           14.2699    11.8899     9.7213 opls_155      1 RES        0.418000
    3083 H           16.3065    12.8614    11.4499 opls_140      1 RES        0.060000
    3084 H           16.1723    11.2242    10.9160 opls_140      1 RES        0.060000
    3085 H           16.6550    11.8758     8.7430 opls_140      1 RES        0.060000
    3086 H           17.7282    12.9511     9.6334 opls_140      1 RES        0.060000
    3087 H           16.2987    13.6401     8.9023 opls_140      1 RES        0.060000
    3088 C           21.4103    13.9459    24.9608 opls_135      1 RES       -0.180000
    3089 C           20.8385    13.2449    23.7281 opls_157      1 RES        0.145000
    3090 O           21.4394    13.5497    22.4895 opls_154      1 RES       -0.683000
    3091 H           22.3775    13.5305    22.6025 opls_155      1 RES        0.418000
    3092 H           19.7746    13.4814    23.7434 opls_140      1 RES        0.060000
    3093 H           20.8825    12.1566    23.7717 opls_140      1 RES        0.060000
    3094 H           22.2963    13.3474    25.1727 opls_140      1 RES        0.060000
    3095 H           20.7340    13.8508    25.8103 opls_140      1 RES        0.060000
    3096 H           21.6466    15.0061    24.8694 opls_140      1 RES        0.060000
    3097 C           15.1555     4.2991    23.9128 opls_135      1 RES       -0.180000
    3098 C           16.0637     3.1319    24.3009 opls_157      1 RES        0.145000
    3099 O           15.5377     2.1962    25.2153 opls_154      1 RES       -0.683000
    3100 H           14.6543     1.9885    24.9518 opls_155      1 RES        0.418000
    3101 H           16.9774     3.6011    24.6655 opls_140      1 RES        0.060000
    3102 H           16.3833     2.5152    23.4609 opls_140      1 RES        0.060000
    3103 H           14.5044     3.8429    23.1671 opls_140      1 RES        0.060000
    3104 H           15.7250     5.0868    23.4194 opls_140      1 RES        0.060000
    3105 H           14.5885     4.7791    24.7103 opls_140      1 RES        0.060000
    3106 C           16.0480    26.3991    33.7865 opls_135      1 RES       -0.180000
    3107 C           15.3334    26.9703    32.5614 opls_157      1 RES        0.145000
    3108 O           14.0470    27.5083    32.7712 opls_154      1 RES       -0.683000
    3109 H           14.0739    28.0469    33.5472 opls_155      1 RES        0.418000
    3110 H           15.3303    26.1555    31.8375 opls_140      1 RES        0.060000
    3111 H           15.8706    27.7798    32.0672 opls_140      1 RES        0.060000
    3112 H           16.4343    27.2990    34.2651 opls_140      1 RES        0.060000
    3113 H           16.9007    25.7886    33.4893 opls_140      1 RES        0.060000
    3114 H           15.4572    25.7934    34.4737 opls_140      1 RES        0.060000
    3115 C            7.1744    18.1604     6.4983 opls_135      1 RES       -0.180000
    3116 C            7.2591    18.4291     4.9955 opls_157      1 RES        0.145000
    3117 O            6.7464    17.4299     4.1429 opls_154      1 RES       -0.683000
    3118 H            5.9126    17.1467     4.4859 opls_155      1 RES        0.418000
    3119 H            8.3134    18.6335     4.8095 opls_140      1 RES        0.060000
    3120 H            6.7393    19.3310     4.6723 opls_140      1 RES        0.060000
    3121 H            6.1381    18.4174     6.7176 opls_140      1 RES        0.060000
    3122 H            7.8121    18.8492     7.0525 opls_140      1 RES        0.060000
    3123 H            7.4276    17.1578     6.8428 opls_140      1 RES        0.060000
    3124 C           27.9103    19.5959     7.2930 opls_135      1 RES       -0.180000
    3125 C           27.0358    20.1267     8.4293 opls_157      1 RES        0.145000
    3126 O           27.4718    19.8589     9.7432 opls_154      1 RES       -0.683000
    3127 H           28.3986    20.0376     9.7902 opls_155      1 RES        0.418000
    3128 H           26.0445    19.7201     8.2292 opls_140      1 RES        0.060000
    3129 H           26.8999    21.2082     8.4215 opls_140      1 RES        0.060000
    3130 H           28.7036    20.3421     7.2485 opls_140      1 RES        0.060000
    3131 H           27.3740    19.6241     6.3445 opls_140      1 RES        0.060000
    3132 H           28.3062    18.5855     7.3958 opls_140      1 RES        0.060000
    3133 C           14.4351    11.3554    24.0570 opls_135      1 RES       -0.180000
    3134 C           14.4572    12.1962    22.7802 opls_157      1 RES        0.145000
    3135 O           13.2206    12.4018    22.1348 opls_154      1 RES       -0.683000
    3136 H           12.5779    12.6265    22.7902 opls_155      1 RES        0.418000
    3137 H           15.1854    11.7030    22.1362 opls_140      1 RES        0.060000
    3138 H           14.8446    13.2060    22.9161 opls_140      1 RES        0.060000
    3139 H           14.0968    12.0779    24.7997 opls_140      1 RES        0.060000
    3140 H           15.4418    11.0417    24.3330 opls_140      1 RES        0.060000
    3141 H           13.8197    10.4558    24.0535 opls_140      1 RES        0.060000
    3142 C           18.9509    29.2833    22.6631 opls_135      1 RES       -0.180000
    3143 C           20.3456    29.0937    22.0657 opls_157      1 RES        0.145000
    3144 O           21.4162    28.9852    22.9768 opls_154      1 RES       -0.683000
    3145 H           21.1578    28.3960    23.6691 opls_155      1 RES        0.418000
    3146 H           20.4683    29.9301    21.3777 opls_140      1 RES        0.060000
    3147 H           20.4489    28.2043    21.4441 opls_140      1 RES        0.060000
    3148 H           18.6856    28.2657    22.9497 opls_140      1 RES        0.060000
    3149 H           18.2430    29.6092    21.9010 opls_140      1 RES        0.060000
    3150 H           18.8532    29.9800    23.4957 opls_140      1 RES        0.060000
    3151 C           19.5907    14.2612    29.9499 opls_135      1 RES       -0.180000
    3152 C           19.1435    15.5084    29.1867 opls_157      1 RES        0.145000
    3153 O           19.6707    15.6816    27.8905 opls_154      1 RES       -0.683000
    3154 H           19.6192    14.8544    27.4365 opls_155      1 RES        0.418000
    3155 H           19.3856    16.3399    29.8486 opls_140      1 RES        0.060000
    3156 H           18.0663    15.5778    29.0350 opls_140      1 RES        0.060000
    3157 H           18.9522    13.4897    29.5195 opls_140      1 RES        0.060000
    3158 H           19.3441    14.3444    31.0084 opls_140      1 RES        0.060000
    3159 H           20.6460    13.9934    29.8971 opls_140      1 RES        0.060000
    3160 C           31.3833     9.4506    27.0988 opls_135      1 RES       -0.180000
    3161 C           30.6766     8.1669    26.6622 opls_157      1 RES        0.145000
    3162 O           29.3690     7.9656    27.1498 opls_154      1 RES       -0.683000
    3163 H           28.8908     8.7756    27.0589 opls_155      1 RES        0.418000
    3164 H           31.3560     7.3648    26.9507 opls_140      1 RES        0.060000
    3165 H           30.5650     8.0625    25.5830 opls_140      1 RES        0.060000
    3166 H           30.9509    10.1893    26.4239 opls_140      1 RES        0.060000
    3167 H           32.4519     9.3956    26.8908 opls_140      1 RES        0.060000
    3168 H           31.2851     9.7458    28.1434 opls_140      1 RES        0.060000
    3169 C           16.2337     7.2199    27.5301 opls_135      1 RES       -0.180000
    3170 C           17.0863     7.1241    28.7957 opls_157      1 RES        0.145000
    3171 O           16.6901     7.9213    29.8891 opls_154      1 RES       -0.683000
    3172 H           15.7540     7.8413    29.9905 opls_155      1 RES        0.418000
    3173 H           18.1004     7.3474    28.4642 opls_140      1 RES        0.060000
    3174 H           17.1464     6.1217    29.2198 opls_140      1 RES        0.060000
    3175 H           15.3898     6.5749    27.7747 opls_140      1 RES        0.060000
    3176 H           16.7523     6.7800    26.6782 opls_140      1 RES        0.060000
    3177 H           15.9108     8.2130    27.2179 opls_140      1 RES        0.060000
    3178 C           14.5235    10.5704    27.3215 opls_135      1 RES       -0.180000
    3179 C           14.7711    12.0473    27.6302 opls_157      1 RES        0.145000
    3180 O           15.8807    12.3469    28.4471 opls_154      1 RES       -0.683000
    3181 H           16.6174    11.8383    28.1446 opls_155      1 RES        0.418000
    3182 H           13.8330    12.4023    28.0566 opls_140      1 RES        0.060000
    3183 H           14.9289    12.6683    26.7484 opls_140      1 RES        0.060000
    3184 H           15.2412    10.3811    26.5232 opls_140      1 RES        0.060000
    3185 H           13.5243    10.4214    26.9122 opls_140      1 RES        0.060000
    3186 H           14.6312     9.8622    28.1430 opls_140      1 RES        0.060000
    3187 C            8.7413     6.1860    24.4646 opls_135      1 RES       -0.180000
    3188 C            8.5270     6.7408    23.0561 opls_157      1 RES        0.145000
    3189 O            8.3677     8.1372    22.9421 opls_154      1 RES       -0.683000
    3190 H            9.0253     8.5552    23.4768 opls_155      1 RES        0.418000
    3191 H            7.6685     6.1915    22.6695 opls_140      1 RES        0.060000
    3192 H            9.3359     6.5190    22.3600 opls_140      1 RES        0.060000
    3193 H            9.8008     6.3829    24.6282 opls_140      1 RES        0.060000
    3194 H            8.5973     5.1056    24.4825 opls_140      1 RES        0.060000
    3195 H            8.1225     6.5948    25.2634 opls_140      1 RES        0.060000
    3196 C           28.5640    11.8280    27.3981 opls_135      1 RES       -0.180000
    3197 C           28.0021    12.9193    26.4865 opls_157      1 RES        0.145000
    3198 O           28.1756    14.2524    26.9120 opls_154      1 RES       -0.683000
    3199 H           29.0660    14.3544    27.2116 opls_155      1 RES        0.418000
    3200 H           26.9520    12.6579    26.3561 opls_140      1 RES        0.060000
    3201 H           28.4168    12.9176    25.4785 opls_140      1 RES        0.060000
    3202 H           29.6229    11.8383    27.1398 opls_140      1 RES        0.060000
    3203 H           28.1650    10.8509    27.1258 opls_140      1 RES        0.060000
    3204 H           28.4049    11.9403    28.4706 opls_140      1 RES        0.060000
    3205 C           32.0442     2.8025    14.9663 opls_135      1 RES       -0.180000
    3206 C           33.2606     2.5849    14.0658 opls_157      1 RES        0.145000
    3207 O           33.0210     1.9944    12.8081 opls_154      1 RES       -0.683000
    3208 H           32.2664     2.4132    12.4229 opls_155      1 RES        0.418000
    3209 H           33.9542     2.0031    14.6729 opls_140      1 RES        0.060000
    3210 H           33.8039     3.4973    13.8196 opls_140      1 RES        0.060000
    3211 H           31.6135     3.7136    14.5510 opls_140      1 RES        0.060000
    3212 H           32.3520     3.0169    15.9897 opls_140      1 RES        0.060000
    3213 H           31.3135     1.9958    15.0244 opls_140      1 RES        0.060000
    3214 C           22.4579    11.0613     4.6680 opls_135      1 RES       -0.180000
    3215 C           22.1871    11.5863     3.2577 opls_157      1 RES        0.145000
    3216 O           22.9080    10.9826     2.2070 opls_154      1 RES       -0.683000
    3217 H           22.8859    10.0462     2.3322 opls_155      1 RES        0.418000
    3218 H           22.3669    12.6595     3.3223 opls_140      1 RES        0.060000
    3219 H           21.1487    11.4966     2.9387 opls_140      1 RES        0.060000
    3220 H           21.8551    10.1535     4.6927 opls_140      1 RES        0.060000
    3221 H           22.0614    11.7441     5.4194 opls_140      1 RES        0.060000
    3222 H           23.4958    10.8691     4.9400 opls_140      1 RES        0.060000
    3223 C           27.3960    28.6798    26.9794 opls_135      1 RES       -0.180000
    3224 C           26.5889    28.4803    28.2626 opls_157      1 RES        0.145000
    3225 O           26.0974    29.6435    28.8899 opls_154      1 RES       -0.683000
    3226 H           25.7241    30.2030    28.2261 opls_155      1 RES        0.418000
    3227 H           27.2433    27.9014    28.9143 opls_140      1 RES        0.060000
    3228 H           25.6998    27.8617    28.1403 opls_140      1 RES        0.060000
    3229 H           26.6112    28.8240    26.2368 opls_140      1 RES        0.060000
    3230 H           27.9391    27.7719    26.7170 opls_140      1 RES        0.060000
    3231 H           28.1235    29.4914    26.9665 opls_140      1 RES        0.060000
    3232 C            9.7783     4.1714     4.5699 opls_135      1 RES       -0.180000
    3233 C            9.0620     4.9727     3.4824 opls_157      1 RES        0.145000
    3234 O            9.6767     5.0108     2.2141 opls_154      1 RES       -0.683000
    3235 H            9.9564     4.1355     1.9938 opls_155      1 RES        0.418000
    3236 H            8.9312     5.9663     3.9111 opls_140      1 RES        0.060000
    3237 H            8.0510     4.6278     3.2653 opls_140      1 RES        0.060000
    3238 H            9.4869     3.1491     4.3289 opls_140      1 RES        0.060000
    3239 H            9.3764     4.4081     5.5551 opls_140      1 RES        0.060000
    3240 H           10.8604     4.2807     4.6417 opls_140      1 RES        0.060000
    3241 C           19.9006     8.6177    31.9307 opls_135      1 RES       -0.180000
    3242 C           18.4195     8.9681    31.7845 opls_157      1 RES        0.145000
    3243 O           18.0419     9.6477    30.6082 opls_154      1 RES       -0.683000
    3244 H           18.4616     9.2257    29.8742 opls_155      1 RES        0.418000
    3245 H           18.1777     9.5312    32.6859 opls_140      1 RES        0.060000
    3246 H           17.7518     8.1068    31.8066 opls_140      1 RES        0.060000
    3247 H           19.9854     7.7240    31.3126 opls_140      1 RES        0.060000
    3248 H           20.1333     8.3351    32.9574 opls_140      1 RES        0.060000
    3249 H           20.6260     9.3802    31.6467 opls_140      1 RES        0.060000
    3250 C           25.5082    12.3245     7.0787 opls_135      1 RES       -0.180000
    3251 C           25.9429    11.3919     8.2098 opls_157      1 RES        0.145000
    3252 O           26.9303    11.8801     9.0900 opls_154      1 RES       -0.683000
    3253 H           26.7070    12.7683     9.3228 opls_155      1 RES        0.418000
    3254 H           26.2495    10.4735     7.7092 opls_140      1 RES        0.060000
    3255 H           25.1347    11.0896     8.8758 opls_140      1 RES        0.060000
    3256 H           24.8130    12.9917     7.5881 opls_140      1 RES        0.060000
    3257 H           24.9489    11.7788     6.3188 opls_140      1 RES        0.060000
    3258 H           26.2901    12.8737     6.5542 opls_140      1 RES        0.060000
    3259 C           30.0348     3.9740    31.9967 opls_135      1 RES       -0.180000
    3260 C           29.6165     4.8461    33.1808 opls_157      1 RES        0.145000
    3261 O           30.0192     4.4129    34.4608 opls_154      1 RES       -0.683000
    3262 H           30.9265     4.1526    34.4138 opls_155      1 RES        0.418000
    3263 H           28.5335     4.9320    33.0927 opls_140      1 RES        0.060000
    3264 H           29.9822     5.8718    33.1323 opls_140      1 RES        0.060000
    3265 H           31.0697     4.2797    31.8430 opls_140      1 RES        0.060000
    3266 H           29.4732     4.2397    31.1011 opls_140      1 RES        0.060000
    3267 H           29.9416     2.8941    32.1124 opls_140      1 RES        0.060000
    3268 C            8.3880    23.6946     2.5613 opls_135      1 RES       -0.180000
    3269 C            8.2763    25.1818     2.8985 opls_157      1 RES        0.145000
    3270 O            7.0170    25.6395     3.3376 opls_154      1 RES       -0.683000
    3271 H            6.6833    25.0250     3.9733 opls_155      1 RES        0.418000
    3272 H            8.6152    25.6960     1.9992 opls_140      1 RES        0.060000
    3273 H            8.9560    25.5150     3.6827 opls_140      1 RES        0.060000
    3274 H            8.4991    23.2451     3.5480 opls_140      1 RES        0.060000
    3275 H            9.2994    23.4914     1.9989 opls_140      1 RES        0.060000
    3276 H            7.5694    23.2459     1.9986 opls_140      1 RES        0.060000
    3277 C           11.6328    16.2992    23.9026 opls_135      1 RES       -0.180000
    3278 C           11.1684    16.8520    25.2504 opls_157      1 RES        0.145000
    3279 O           12.0883    16.7795    26.3165 opls_154      1 RES       -0.683000
    3280 H           12.9322    17.0632    25.9996 opls_155      1 RES        0.418000
    3281 H           10.2417    16.3193    25.4639 opls_140      1 RES        0.060000
    3282 H           10.8858    17.9045    25.2288 opls_140      1 RES        0.060000
    3283 H           12.2393    17.1187    23.5171 opls_140      1 RES        0.060000
    3284 H           10.7885    16.1640    23.2266 opls_140      1 RES        0.060000
    3285 H           12.1790    15.3559    23.9096 opls_140      1 RES        0.060000
    3286 C           13.0984     7.6958    26.3072 opls_135      1 RES       -0.180000
    3287 C           12.8421     6.1917    26.2074 opls_157      1 RES        0.145000
    3288 O           11.7067     5.6959    26.8805 opls_154      1 RES       -0.683000
    3289 H           10.9797     6.2720    26.6996 opls_155      1 RES        0.418000
    3290 H           13.7661     5.7296    26.5547 opls_140      1 RES        0.060000
    3291 H           12.7139     5.8264    25.1884 opls_140      1 RES        0.060000
    3292 H           12.4070     8.0944    25.5648 opls_140      1 RES        0.060000
    3293 H           14.1103     7.9396    25.9838 opls_140      1 RES        0.060000
    3294 H           12.9632     8.1631    27.2826 opls_140      1 RES        0.060000
    3295 C            7.0294    18.8216    25.2417 opls_135      1 RES       -0.180000
    3296 C            7.9459    18.0537    24.2888 opls_157      1 RES        0.145000
    3297 O            7.5752    18.0368    22.9285 opls_154      1 RES       -0.683000
    3298 H            7.3269    18.9135    22.6780 opls_155      1 RES        0.418000
    3299 H            8.0115    17.0523    24.7143 opls_140      1 RES        0.060000
    3300 H            8.9740    18.4154    24.2682 opls_140      1 RES        0.060000
    3301 H            7.3439    19.8525    25.0788 opls_140      1 RES        0.060000
    3302 H            7.2473    18.5676    26.2791 opls_140      1 RES        0.060000
    3303 H            5.9544    18.6978    25.1111 opls_140      1 RES        0.060000
    3304 C           33.6595     4.1103    24.0083 opls_135      1 RES       -0.180000
    3305 C           33.5980     3.1961    25.2323 opls_157      1 RES        0.145000
    3306 O           33.8317     3.7981    26.4857 opls_154      1 RES       -0.683000
    3307 H           33.3415     4.6052    26.5230 opls_155      1 RES        0.418000
    3308 H           34.3065     2.3963    25.0167 opls_140      1 RES        0.060000
    3309 H           32.6411     2.6917    25.3663 opls_140      1 RES        0.060000
    3310 H           32.6800     4.5879    24.0313 opls_140      1 RES        0.060000
    3311 H           33.7230     3.5263    23.0901 opls_140      1 RES        0.060000
    3312 H           34.4682     4.8401    23.9685 opls_140      1 RES        0.060000
    3313 C           22.2604    32.4396     6.4727 opls_135      1 RES       -0.180000
    3314 C           22.9670    31.6359     7.5647 opls_157      1 RES        0.145000
    3315 O           22.9828    32.1995     8.8571 opls_154      1 RES       -0.683000
    3316 H           22.1162    32.5234     9.0499 opls_155      1 RES        0.418000
    3317 H           23.9699    31.4612     7.1751 opls_140      1 RES        0.060000
    3318 H           22.5536    30.6404     7.7260 opls_140      1 RES        0.060000
    3319 H           21.2127    32.2019     6.6569 opls_140      1 RES        0.060000
    3320 H           22.5181    32.0611     5.4835 opls_140      1 RES        0.060000
    3321 H           22.4364    33.5150     6.4491 opls_140      1 RES        0.060000
    3322 C            9.3574    32.6739    25.1197 opls_135      1 RES       -0.180000
    3323 C            9.7633    31.2977    25.6481 opls_157      1 RES        0.145000
    3324 O           10.6442    30.5446    24.8450 opls_154      1 RES       -0.683000
    3325 H           11.3360    31.1157    24.5478 opls_155      1 RES        0.418000
    3326 H            8.8207    30.7811    25.8285 opls_140      1 RES        0.060000
    3327 H           10.2591    31.3195    26.6186 opls_140      1 RES        0.060000
    3328 H           10.2208    33.2837    25.3857 opls_140      1 RES        0.060000
    3329 H            8.4965    33.0608    25.6649 opls_140      1 RES        0.060000
    3330 H            9.1143    32.7516    24.0600 opls_140      1 RES        0.060000
    3331 C           20.9862    12.9787    15.2364 opls_135      1 RES       -0.180000
    3332 C           22.1301    12.1445    14.6589 opls_157      1 RES        0.145000
    3333 O           22.2033    10.7978    15.0702 opls_154      1 RES       -0.683000
    3334 H           21.3346    10.4280    15.0302 opls_155      1 RES        0.418000
    3335 H           23.0326    12.7040    14.9048 opls_140      1 RES        0.060000
    3336 H           22.1309    12.0790    13.5708 opls_140      1 RES        0.060000
    3337 H           20.1460    12.6769    14.6111 opls_140      1 RES        0.060000
    3338 H           21.1589    14.0421    15.0707 opls_140      1 RES        0.060000
    3339 H           20.7673    12.8615    16.2978 opls_140      1 RES        0.060000
    3340 C            9.2399    20.6886    27.7061 opls_135      1 RES       -0.180000
    3341 C            9.2407    22.1566    28.1334 opls_157      1 RES        0.145000
    3342 O            8.7610    22.4403    29.4287 opls_154      1 RES       -0.683000
    3343 H            9.1382    21.8146    30.0281 opls_155      1 RES        0.418000
    3344 H            8.6732    22.6712    27.3580 opls_140      1 RES        0.060000
    3345 H           10.2240    22.6267    28.1173 opls_140      1 RES        0.060000
    3346 H           10.1402    20.3100    28.1901 opls_140      1 RES        0.060000
    3347 H            9.3783    20.5976    26.6288 opls_140      1 RES        0.060000
    3348 H            8.3613    20.0944    27.9575 opls_140      1 RES        0.060000
    3349 C           19.8740    33.6246    20.6094 opls_135      1 RES       -0.180000
    3350 C           18.6039    33.8186    21.4383 opls_157      1 RES        0.145000
    3351 O           17.5248    34.4665    20.8029 opls_154      1 RES       -0.683000
    3352 H           17.4255    34.0983    19.9383 opls_155      1 RES        0.418000
    3353 H           18.9352    34.3440    22.3340 opls_140      1 RES        0.060000
    3354 H           18.1638    32.8917    21.8061 opls_140      1 RES        0.060000
    3355 H           19.6223    32.7510    20.0082 opls_140      1 RES        0.060000
    3356 H           20.7169    33.3578    21.2469 opls_140      1 RES        0.060000
    3357 H           20.2031    34.4620    19.9940 opls_140      1 RES        0.060000
    3358 C           29.6775    19.1869    14.0365 opls_135      1 RES       -0.180000
    3359 C           29.3823    19.7949    15.4081 opls_157      1 RES        0.145000
    3360 O           30.2300    20.8375    15.8352 opls_154      1 RES       -0.683000
    3361 H           30.3513    21.4354    15.1135 opls_155      1 RES        0.418000
    3362 H           29.3875    18.9475    16.0937 opls_140      1 RES        0.060000
    3363 H           28.3843    20.2231    15.5022 opls_140      1 RES        0.060000
    3364 H           29.2253    19.9146    13.3627 opls_140      1 RES        0.060000
    3365 H           29.1490    18.2422    13.9086 opls_140      1 RES        0.060000
    3366 H           30.7213    18.9948    13.7881 opls_140      1 RES        0.060000
    3367 C           21.4805     8.4757    21.7372 opls_135      1 RES       -0.180000
    3368 C           20.8340     9.8533    21.5886 opls_157      1 RES        0.145000
    3369 O           20.8481    10.4247    20.2997 opls_154      1 RES       -0.683000
    3370 H           20.5969     9.7591    19.6776 opls_155      1 RES        0.418000
    3371 H           21.3393    10.4774    22.3257 opls_140      1 RES        0.060000
    3372 H           19.7815     9.8863    21.8705 opls_140      1 RES        0.060000
    3373 H           20.6962     7.8150    21.3678 opls_140      1 RES        0.060000
    3374 H           21.6490     8.2370    22.7873 opls_140      1 RES        0.060000
    3375 H           22.4283     8.3095    21.2252 opls_140      1 RES        0.060000
    3376 C           20.8509     3.7386    23.6517 opls_135      1 RES       -0.180000
    3377 C           19.5771     3.2736    24.3581 opls_157      1 RES        0.145000
    3378 O           18.6110     2.6251    23.5617 opls_154      1 RES       -0.683000
    3379 H           19.0537     1.9984    23.0102 opls_155      1 RES        0.418000
    3380 H           19.1851     4.1691    24.8405 opls_140      1 RES        0.060000
    3381 H           19.7488     2.5707    25.1733 opls_140      1 RES        0.060000
    3382 H           21.4283     2.8160    23.5926 opls_140      1 RES        0.060000
    3383 H           21.4068     4.4393    24.2746 opls_140      1 RES        0.060000
    3384 H           20.7382     4.2123    22.6764 opls_140      1 RES        0.060000
    3385 C           11.0583    24.4688     4.9409 opls_135      1 RES       -0.180000
    3386 C           11.6785    23.5614     6.0038 opls_157      1 RES        0.145000
    3387 O           10.8517    23.1949     7.0855 opls_154      1 RES       -0.683000
    3388 H           10.0075    22.9452     6.7420 opls_155      1 RES        0.418000
    3389 H           12.5771    24.0871     6.3268 opls_140      1 RES        0.060000
    3390 H           12.0372    22.6055     5.6220 opls_140      1 RES        0.060000
    3391 H           10.4846    23.7604     4.3433 opls_140      1 RES        0.060000
    3392 H           11.8280    24.8980     4.2994 opls_140      1 RES        0.060000
    3393 H           10.4447    25.3000     5.2882 opls_140      1 RES        0.060000
    3394 C           27.5005    16.9981    10.5959 opls_135      1 RES       -0.180000
    3395 C           27.3400    18.0252    11.7171 opls_157      1 RES        0.145000
    3396 O           27.0830    17.5197    13.0081 opls_154      1 RES       -0.683000
    3397 H           27.6694    16.7955    13.1650 opls_155      1 RES        0.418000
    3398 H           26.5537    18.6950    11.3688 opls_140      1 RES        0.060000
    3399 H           28.2084    18.6675    11.8632 opls_140      1 RES        0.060000
    3400 H           28.5286    16.6649    10.7379 opls_140      1 RES        0.060000
    3401 H           27.4383    17.4770     9.6187 opls_140      1 RES        0.060000
    3402 H           26.8001    16.1632    10.5776 opls_140      1 RES        0.060000
    3403 C           28.9081    11.7699    11.3917 opls_135      1 RES       -0.180000
    3404 C           29.9602    10.9178    12.1022 opls_157      1 RES        0.145000
    3405 O           29.9454    10.9373    13.5120 opls_154      1 RES       -0.683000
    3406 H           29.0498    10.8490    13.8003 opls_155      1 RES        0.418000
    3407 H           30.9124    11.2540    11.6918 opls_140      1 RES        0.060000
    3408 H           29.9127     9.8557    11.8617 opls_140      1 RES        0.060000
    3409 H           28.0229    11.1369    11.4533 opls_140      1 RES        0.060000
    3410 H           29.1558    11.8934    10.3374 opls_140      1 RES        0.060000
    3411 H           28.7232    12.7691    11.7862 opls_140      1 RES        0.060000
    3412 C           26.0986    32.4614     8.8084 opls_135      1 RES       -0.180000
    3413 C           25.6658    33.9195     8.9644 opls_157      1 RES        0.145000
    3414 O           24.8966    34.4680     7.9177 opls_154      1 RES       -0.683000
    3415 H           24.2303    33.8416     7.6798 opls_155      1 RES        0.418000
    3416 H           26.5933    34.4676     9.1301 opls_140      1 RES        0.060000
    3417 H           25.0644    34.1151     9.8522 opls_140      1 RES        0.060000
    3418 H           25.1981    31.9235     9.1048 opls_140      1 RES        0.060000
    3419 H           26.8847    32.2112     9.5209 opls_140      1 RES        0.060000
    3420 H           26.4569    32.1475     7.8280 opls_140      1 RES        0.060000
    3421 C           30.7981    18.3850     6.9124 opls_135      1 RES       -0.180000
    3422 C           32.3115    18.3145     6.7062 opls_157      1 RES        0.145000
    3423 O           33.0363    17.5021     7.6022 opls_154      1 RES       -0.683000
    3424 H           32.5741    16.6838     7.7007 opls_155      1 RES        0.418000
    3425 H           32.6425    19.3528     6.7257 opls_140      1 RES        0.060000
    3426 H           32.6127    17.9445     5.7262 opls_140      1 RES        0.060000
    3427 H           30.4611    17.4602     6.4442 opls_140      1 RES        0.060000
    3428 H           30.3683    19.2163     6.3535 opls_140      1 RES        0.060000
    3429 H           30.4360    18.4792     7.9362 opls_140      1 RES        0.060000
    3430 C           26.7319    30.7864    31.6784 opls_135      1 RES       -0.180000
    3431 C           26.4599    29.2917    31.5060 opls_157      1 RES        0.145000
    3432 O           26.3497    28.5271    32.6855 opls_154      1 RES       -0.683000
    3433 H           25.8030    28.9993    33.2948 opls_155      1 RES        0.418000
    3434 H           27.2590    28.9380    30.8544 opls_140      1 RES        0.060000
    3435 H           25.5401    29.0636    30.9675 opls_140      1 RES        0.060000
    3436 H           25.7396    31.1732    31.9105 opls_140      1 RES        0.060000
    3437 H           27.0513    31.2341    30.7373 opls_140      1 RES        0.060000
    3438 H           27.4687    31.0783    32.4268 opls_140      1 RES        0.060000
    3439 C           33.6628     4.0804     8.6635 opls_135      1 RES       -0.180000
    3440 C           33.8436     2.5634     8.7268 opls_157      1 RES        0.145000
    3441 O           34.3615     2.0361     9.9275 opls_154      1 RES       -0.683000
    3442 H           33.9143     2.4494    10.6501 opls_155      1 RES        0.418000
    3443 H           34.4652     2.3222     7.8645 opls_140      1 RES        0.060000
    3444 H           32.9249     1.9967     8.5751 opls_140      1 RES        0.060000
    3445 H           32.7258     4.2208     9.2024 opls_140      1 RES        0.060000
    3446 H           33.5083     4.4106     7.6363 opls_140      1 RES        0.060000
    3447 H           34.4637     4.6975     9.0708 opls_140      1 RES        0.060000
    3448 C           29.9897    23.0523    32.3667 opls_135      1 RES       -0.180000
    3449 C           28.9861    23.8836    33.1664 opls_157      1 RES        0.145000
    3450 O           29.3777    24.2752    34.4631 opls_154      1 RES       -0.683000
    3451 H           30.2668    24.5926    34.4210 opls_155      1 RES        0.418000
    3452 H           28.0734    23.2877    33.1699 opls_140      1 RES        0.060000
    3453 H           28.7036    24.8229    32.6910 opls_140      1 RES        0.060000
    3454 H           30.6743    23.8157    31.9969 opls_140      1 RES        0.060000
    3455 H           29.5106    22.5895    31.5039 opls_140      1 RES        0.060000
    3456 H           30.5140    22.2560    32.8949 opls_140      1 RES        0.060000
    3457 C           12.4054    12.7400    33.5277 opls_135      1 RES       -0.180000
    3458 C           12.1283    11.2366    33.4999 opls_157      1 RES        0.145000
    3459 O           13.1805    10.4058    33.0631 opls_154      1 RES       -0.683000
    3460 H           13.9776    10.6916    33.4827 opls_155      1 RES        0.418000
    3461 H           11.2333    11.1311    32.8868 opls_140      1 RES        0.060000
    3462 H           11.8548    10.8141    34.4668 opls_140      1 RES        0.060000
    3463 H           12.9629    12.8517    34.4577 opls_140      1 RES        0.060000
    3464 H           11.4780    13.3041    33.6264 opls_140      1 RES        0.060000
    3465 H           12.9393    13.1666    32.6785 opls_140      1 RES        0.060000
    3466 C           29.5383    22.5948     8.3908 opls_135      1 RES       -0.180000
    3467 C           30.5170    23.7339     8.6777 opls_157      1 RES        0.145000
    3468 O           30.7519    24.0416    10.0336 opls_154      1 RES       -0.683000
    3469 H           30.8801    23.2318    10.5034 opls_155      1 RES        0.418000
    3470 H           30.1237    24.5841     8.1205 opls_140      1 RES        0.060000
    3471 H           31.5176    23.5760     8.2753 opls_140      1 RES        0.060000
    3472 H           30.1614    21.7143     8.5473 opls_140      1 RES        0.060000
    3473 H           29.2297    22.6020     7.3454 opls_140      1 RES        0.060000
    3474 H           28.6245    22.5583     8.9839 opls_140      1 RES        0.060000
    3475 C           22.9115     2.9282     7.1944 opls_135      1 RES       -0.180000
    3476 C           23.4606     2.6973     8.6026 opls_157      1 RES        0.145000
    3477 O           23.8469     3.8428     9.3282 opls_154      1 RES       -0.683000
    3478 H           23.1736     4.4983     9.2281 opls_155      1 RES        0.418000
    3479 H           24.2822     1.9939     8.4677 opls_140      1 RES        0.060000
    3480 H           22.7682     2.1911     9.2753 opls_140      1 RES        0.060000
    3481 H           21.8820     3.2235     7.3969 opls_140      1 RES        0.060000
    3482 H           22.8849     1.9960     6.6302 opls_140      1 RES        0.060000
    3483 H           23.4285     3.6553     6.5683 opls_140      1 RES        0.060000
    3484 C           16.6482    31.7704    33.6970 opls_135      1 RES       -0.180000
    3485 C           15.9336    30.4189    33.7228 opls_157      1 RES        0.145000
    3486 O           14.5454    30.4402    33.9691 opls_154      1 RES       -0.683000
    3487 H           14.1611    31.1233    33.4411 opls_155      1 RES        0.418000
    3488 H           16.4781    29.8316    34.4622 opls_140      1 RES        0.060000
    3489 H           16.0194    29.8498    32.7971 opls_140      1 RES        0.060000
    3490 H           16.4131    32.1333    32.6965 opls_140      1 RES        0.060000
    3491 H           17.7286    31.6397    33.7579 opls_140      1 RES        0.060000
    3492 H           16.3792    32.4938    34.4668 opls_140      1 RES        0.060000
    3493 C           19.5020    23.3208    26.6846 opls_135      1 RES       -0.180000
    3494 C           19.5007    21.8241    26.9975 opls_157      1 RES        0.145000
    3495 O           19.9359    21.4449    28.2840 opls_154      1 RES       -0.683000
    3496 H           19.5309    22.0197    28.9153 opls_155      1 RES        0.418000
    3497 H           20.1012    21.3752    26.2064 opls_140      1 RES        0.060000
    3498 H           18.5235    21.3494    26.9089 opls_140      1 RES        0.060000
    3499 H           18.5808    23.6541    27.1626 opls_140      1 RES        0.060000
    3500 H           19.4018    23.4936    25.6131 opls_140      1 RES        0.060000
    3501 H           20.3647    23.9003    27.0132 opls_140      1 RES        0.060000
    3502 C           13.1722    26.6639     6.2620 opls_135      1 RES       -0.180000
    3503 C           13.5579    27.9603     6.9750 opls_157      1 RES        0.145000
    3504 O           12.8304    28.2847     8.1384 opls_154      1 RES       -0.683000
    3505 H           12.7547    27.5054     8.6676 opls_155      1 RES        0.418000
    3506 H           13.4817    28.7314     6.2084 opls_140      1 RES        0.060000
    3507 H           14.5961    27.9975     7.3050 opls_140      1 RES        0.060000
    3508 H           13.6811    25.9121     6.8651 opls_140      1 RES        0.060000
    3509 H           13.5988    26.6303     5.2595 opls_140      1 RES        0.060000
    3510 H           12.1090    26.4489     6.1543 opls_140      1 RES        0.060000
    3511 C           11.0217    28.2974    33.5569 opls_135      1 RES       -0.180000
    3512 C           11.5958    29.5426    32.8804 opls_157      1 RES        0.145000
    3513 O           11.9396    30.6201    33.7224 opls_154      1 RES       -0.683000
    3514 H           12.4091    30.2764    34.4670 opls_155      1 RES        0.418000
    3515 H           10.8522    29.8196    32.1332 opls_140      1 RES        0.060000
    3516 H           12.5081    29.3624    32.3119 opls_140      1 RES        0.060000
    3517 H           11.9207    27.8036    33.9258 opls_140      1 RES        0.060000
    3518 H           10.5565    27.6372    32.8249 opls_140      1 RES        0.060000
    3519 H           10.2872    28.4507    34.3476 opls_140      1 RES        0.060000
    3520 C           30.7197    18.6018    23.2505 opls_135      1 RES       -0.180000
    3521 C           30.9616    17.1893    23.7837 opls_157      1 RES        0.145000
    3522 O           31.9192    17.0542    24.8097 opls_154      1 RES       -0.683000
    3523 H           31.7709    17.7375    25.4454 opls_155      1 RES        0.418000
    3524 H           31.2110    16.5993    22.9018 opls_140      1 RES        0.060000
    3525 H           30.0748    16.7096    24.1980 opls_140      1 RES        0.060000
    3526 H           30.0582    19.0212    24.0085 opls_140      1 RES        0.060000
    3527 H           30.1707    18.5730    22.3094 opls_140      1 RES        0.060000
    3528 H           31.5945    19.2295    23.0805 opls_140      1 RES        0.060000
    3529 C           28.9419    19.1440    18.7024 opls_135      1 RES       -0.180000
    3530 C           27.4198    19.2615    18.6178 opls_157      1 RES        0.145000
    3531 O           26.8158    20.2585    19.4112 opls_154      1 RES       -0.683000
    3532 H           27.3173    21.0542    19.3200 opls_155      1 RES        0.418000
    3533 H           27.0513    18.2630    18.8531 opls_140      1 RES        0.060000
    3534 H           27.0421    19.4691    17.6167 opls_140      1 RES        0.060000
    3535 H           29.2694    19.9514    18.0475 opls_140      1 RES        0.060000
    3536 H           29.2836    18.2045    18.2681 opls_140      1 RES        0.060000
    3537 H           29.3952    19.2118    19.6913 opls_140      1 RES        0.060000
    3538 C           27.5719     7.6532    30.1844 opls_135      1 RES       -0.180000
    3539 C           27.2244     7.5249    31.6678 opls_157      1 RES        0.145000
    3540 O           25.9225     7.0811    31.9780 opls_154      1 RES       -0.683000
    3541 H           25.7193     6.3457    31.4204 opls_155      1 RES        0.418000
    3542 H           27.4404     8.5068    32.0890 opls_140      1 RES        0.060000
    3543 H           27.8660     6.8379    32.2198 opls_140      1 RES        0.060000
    3544 H           27.7915     6.6210    29.9118 opls_140      1 RES        0.060000
    3545 H           28.4840     8.2342    30.0481 opls_140      1 RES        0.060000
    3546 H           26.8208     8.0966    29.5307 opls_140      1 RES        0.060000
    3547 C           13.1742    22.1370    25.4690 opls_135      1 RES       -0.180000
    3548 C           12.7033    20.7148    25.1635 opls_157      1 RES        0.145000
    3549 O           12.1966    20.4789    23.8690 opls_154      1 RES       -0.683000
    3550 H           12.7773    20.8863    23.2446 opls_155      1 RES        0.418000
    3551 H           11.9744    20.4910    25.9424 opls_140      1 RES        0.060000
    3552 H           13.4752    19.9537    25.2775 opls_140      1 RES        0.060000
    3553 H           14.1634    22.1526    25.0113 opls_140      1 RES        0.060000
    3554 H           13.3020    22.2818    26.5417 opls_140      1 RES        0.060000
    3555 H           12.5493    22.9579    25.1172 opls_140      1 RES        0.060000
    3556 C           14.1346    15.9167    33.3397 opls_135      1 RES       -0.180000
    3557 C           15.6094    16.3051    33.4488 opls_157      1 RES        0.145000
    3558 O           16.3595    15.6693    34.4593 opls_154      1 RES       -0.683000
    3559 H           16.1545    14.7469    34.4446 opls_155      1 RES        0.418000
    3560 H           15.6030    17.3898    33.5560 opls_140      1 RES        0.060000
    3561 H           16.1893    16.1180    32.5451 opls_140      1 RES        0.060000
    3562 H           14.1870    14.9744    32.7944 opls_140      1 RES        0.060000
    3563 H           13.5901    16.6293    32.7202 opls_140      1 RES        0.060000
    3564 H           13.5722    15.8197    34.2684 opls_140      1 RES        0.060000
    3565 C            4.8103    14.0881    27.6627 opls_135      1 RES       -0.180000
    3566 C            4.4615    15.2459    26.7269 opls_157      1 RES        0.145000
    3567 O            5.1438    16.4612    26.9401 opls_154      1 RES       -0.683000
    3568 H            6.0601    16.2683    27.0674 opls_155      1 RES        0.418000
    3569 H            3.3804    15.3555    26.8127 opls_140      1 RES        0.060000
    3570 H            4.6372    15.0368    25.6717 opls_140      1 RES        0.060000
    3571 H            5.7379    13.7156    27.2281 opls_140      1 RES        0.060000
    3572 H            4.0673    13.2938    27.5914 opls_140      1 RES        0.060000
    3573 H            4.9196    14.3167    28.7228 opls_140      1 RES        0.060000
    3574 C           12.2883    28.5346    15.7928 opls_135      1 RES       -0.180000
    3575 C           13.2295    27.8166    14.8251 opls_157      1 RES        0.145000
    3576 O           14.3548    28.5406    14.3805 opls_154      1 RES       -0.683000
    3577 H           14.7454    28.9691    15.1268 opls_155      1 RES        0.418000
    3578 H           12.5898    27.4963    14.0027 opls_140      1 RES        0.060000
    3579 H           13.6587    26.8954    15.2191 opls_140      1 RES        0.060000
    3580 H           12.8116    28.4254    16.7427 opls_140      1 RES        0.060000
    3581 H           11.3382    28.0065    15.8741 opls_140      1 RES        0.060000
    3582 H           12.0474    29.5756    15.5773 opls_140      1 RES        0.060000
    3583 C            6.2776    23.7183    12.6432 opls_135      1 RES       -0.180000
    3584 C            7.1988    22.5254    12.3860 opls_157      1 RES        0.145000
    3585 O            7.1763    21.9752    11.0880 opls_154      1 RES       -0.683000
    3586 H            7.2027    22.6850    10.4647 opls_155      1 RES        0.418000
    3587 H            6.9292    21.7971    13.1510 opls_140      1 RES        0.060000
    3588 H            8.2554    22.7310    12.5573 opls_140      1 RES        0.060000
    3589 H            6.8483    24.5430    12.2164 opls_140      1 RES        0.060000
    3590 H            6.1729    23.9047    13.7121 opls_140      1 RES        0.060000
    3591 H            5.2676    23.6679    12.2365 opls_140      1 RES        0.060000
    3592 C           26.9822    19.0242    25.0606 opls_135      1 RES       -0.180000
    3593 C           26.4014    20.1455    24.1985 opls_157      1 RES        0.145000
    3594 O           26.3769    21.4352    24.7679 opls_154      1 RES       -0.683000
    3595 H           27.2129    21.5937    25.1789 opls_155      1 RES        0.418000
    3596 H           25.4075    19.7948    23.9206 opls_140      1 RES        0.060000
    3597 H           26.9189    20.2952    23.2510 opls_140      1 RES        0.060000
    3598 H           28.0547    19.1696    24.9311 opls_140      1 RES        0.060000
    3599 H           26.7274    18.0471    24.6502 opls_140      1 RES        0.060000
    3600 H           26.6977    19.0028    26.1126 opls_140      1 RES        0.060000
    3601 C           14.2886    17.1464    20.8109 opls_135      1 RES       -0.180000
    3602 C           13.6356    17.6600    19.5273 opls_157      1 RES        0.145000
    3603 O           13.7037    19.0488    19.2931 opls_154      1 RES       -0.683000
    3604 H           14.5847    19.3375    19.4763 opls_155      1 RES        0.418000
    3605 H           12.6093    17.2961    19.5738 opls_140      1 RES        0.060000
    3606 H           14.0435    17.2273    18.6138 opls_140      1 RES        0.060000
    3607 H           15.3418    17.1108    20.5322 opls_140      1 RES        0.060000
    3608 H           13.9679    16.1277    21.0291 opls_140      1 RES        0.060000
    3609 H           14.1270    17.7242    21.7209 opls_140      1 RES        0.060000
    3610 C            8.6201     4.0853    19.0429 opls_135      1 RES       -0.180000
    3611 C            9.6391     4.9966    18.3582 opls_157      1 RES        0.145000
    3612 O            9.4064     6.3847    18.4434 opls_154      1 RES       -0.683000
    3613 H            9.1705     6.5916    19.3348 opls_155      1 RES        0.418000
    3614 H            9.6777     4.6440    17.3275 opls_140      1 RES        0.060000
    3615 H           10.6583     4.8860    18.7287 opls_140      1 RES        0.060000
    3616 H            8.9329     4.1368    20.0858 opls_140      1 RES        0.060000
    3617 H            8.7373     3.0536    18.7113 opls_140      1 RES        0.060000
    3618 H            7.5656     4.3326    18.9209 opls_140      1 RES        0.060000
    3619 C           26.2778    32.4946    12.3298 opls_135      1 RES       -0.180000
    3620 C           25.9886    31.8826    13.7007 opls_157      1 RES        0.145000
    3621 O           25.1066    32.5943    14.5396 opls_154      1 RES       -0.683000
    3622 H           24.3648    32.8707    14.0235 opls_155      1 RES        0.418000
    3623 H           26.9699    31.7411    14.1536 opls_140      1 RES        0.060000
    3624 H           25.5532    30.8840    13.6620 opls_140      1 RES        0.060000
    3625 H           25.3975    32.2001    11.7585 opls_140      1 RES        0.060000
    3626 H           27.1459    32.0231    11.8693 opls_140      1 RES        0.060000
    3627 H           26.4501    33.5701    12.2878 opls_140      1 RES        0.060000
    3628 C           27.6974    16.0592    17.4986 opls_135      1 RES       -0.180000
    3629 C           26.4595    15.4675    18.1732 opls_157      1 RES        0.145000
    3630 O           26.5014    14.0921    18.4809 opls_154      1 RES       -0.683000
    3631 H           27.3405    13.9012    18.8716 opls_155      1 RES        0.418000
    3632 H           25.6340    15.7196    17.5076 opls_140      1 RES        0.060000
    3633 H           26.2025    15.9336    19.1245 opls_140      1 RES        0.060000
    3634 H           28.3697    16.2052    18.3441 opls_140      1 RES        0.060000
    3635 H           27.4779    17.0395    17.0754 opls_140      1 RES        0.060000
    3636 H           28.1622    15.4752    16.7043 opls_140      1 RES        0.060000
    3637 C           25.3068     8.0604    21.5487 opls_135      1 RES       -0.180000
    3638 C           24.9805     6.8418    20.6848 opls_157      1 RES        0.145000
    3639 O           25.4511     6.8623    19.3558 opls_154      1 RES       -0.683000
    3640 H           26.3479     7.1601    19.3634 opls_155      1 RES        0.418000
    3641 H           23.8963     6.7450    20.7405 opls_140      1 RES        0.060000
    3642 H           25.3647     5.8999    21.0766 opls_140      1 RES        0.060000
    3643 H           26.3368     7.8608    21.8443 opls_140      1 RES        0.060000
    3644 H           24.6975     8.0702    22.4524 opls_140      1 RES        0.060000
    3645 H           25.1975     9.0432    21.0899 opls_140      1 RES        0.060000
    3646 C           11.4674     7.0792     3.9631 opls_135      1 RES       -0.180000
    3647 C           11.8682     8.0264     2.8317 opls_157      1 RES        0.145000
    3648 O           13.0889     7.7552     2.1802 opls_154      1 RES       -0.683000
    3649 H           13.1311     6.8278     2.0038 opls_155      1 RES        0.418000
    3650 H           11.8487     9.0191     3.2815 opls_140      1 RES        0.060000
    3651 H           11.1489     8.0769     2.0144 opls_140      1 RES        0.060000
    3652 H           11.0581     6.2304     3.4152 opls_140      1 RES        0.060000
    3653 H           10.6634     7.5074     4.5616 opls_140      1 RES        0.060000
    3654 H           12.2469     6.7757     4.6619 opls_140      1 RES        0.060000
    3655 C           25.5153    29.1054    17.1895 opls_135      1 RES       -0.180000
    3656 C           26.1904    30.0666    16.2107 opls_157      1 RES        0.145000
    3657 O           26.6517    29.5157    14.9974 opls_154      1 RES       -0.683000
    3658 H           25.9774    28.9500    14.6534 opls_155      1 RES        0.418000
    3659 H           26.9902    30.5321    16.7866 opls_140      1 RES        0.060000
    3660 H           25.5591    30.8954    15.8904 opls_140      1 RES        0.060000
    3661 H           24.5115    29.0237    16.7727 opls_140      1 RES        0.060000
    3662 H           25.4290    29.5554    18.1785 opls_140      1 RES        0.060000
    3663 H           25.9782    28.1289    17.3322 opls_140      1 RES        0.060000
    3664 C           11.2334     3.3852    15.7913 opls_135      1 RES       -0.180000
    3665 C           12.3699     4.4051    15.7153 opls_157      1 RES        0.145000
    3666 O           12.0612     5.7280    16.0933 opls_154      1 RES       -0.683000
    3667 H           11.5589     5.6981    16.8932 opls_155      1 RES        0.418000
    3668 H           12.7327     4.3398    14.6895 opls_140      1 RES        0.060000
    3669 H           13.2340     4.1589    16.3324 opls_140      1 RES        0.060000
    3670 H           11.2150     3.1434    16.8539 opls_140      1 RES        0.060000
    3671 H           11.4905     2.4760    15.2479 opls_140      1 RES        0.060000
    3672 H           10.2547     3.6980    15.4273 opls_140      1 RES        0.060000
    3673 C            6.2560     4.4412    33.5745 opls_135      1 RES       -0.180000
    3674 C            5.3387     4.4261    32.3514 opls_157      1 RES        0.145000
    3675 O            5.9633     4.4986    31.0894 opls_154      1 RES       -0.683000
    3676 H            6.6975     3.9036    31.0874 opls_155      1 RES        0.418000
    3677 H            4.6414     5.2472    32.5179 opls_140      1 RES        0.060000
    3678 H            4.7105     3.5387    32.2742 opls_140      1 RES        0.060000
    3679 H            6.5984     3.4072    33.6152 opls_140      1 RES        0.060000
    3680 H            5.6881     4.6393    34.4835 opls_140      1 RES        0.060000
    3681 H            7.0875     5.1460    33.5682 opls_140      1 RES        0.060000
    3682 C           12.6005    21.2889    11.8346 opls_135      1 RES       -0.180000
    3683 C           12.8946    22.6312    11.1641 opls_157      1 RES        0.145000
    3684 O           14.0157    22.6815    10.3105 opls_154      1 RES       -0.683000
    3685 H           14.0021    21.9151     9.7578 opls_155      1 RES        0.418000
    3686 H           12.9665    23.3422    11.9871 opls_140      1 RES        0.060000
    3687 H           12.0831    23.0074    10.5412 opls_140      1 RES        0.060000
    3688 H           12.0965    20.7419    11.0378 opls_140      1 RES        0.060000
    3689 H           11.8919    21.4110    12.6537 opls_140      1 RES        0.060000
    3690 H           13.4479    20.7341    12.2373 opls_140      1 RES        0.060000
    3691 C            6.9095    18.0526    10.3975 opls_135      1 RES       -0.180000
    3692 C            6.3794    19.3344     9.7542 opls_157      1 RES        0.145000
    3693 O            7.3101    20.3741     9.5517 opls_154      1 RES       -0.683000
    3694 H            8.0976    20.0001     9.1870 opls_155      1 RES        0.418000
    3695 H            5.5471    19.6392    10.3886 opls_140      1 RES        0.060000
    3696 H            5.9393    19.1908     8.7674 opls_140      1 RES        0.060000
    3697 H            7.3799    17.5511     9.5518 opls_140      1 RES        0.060000
    3698 H            6.0891    17.4234    10.7427 opls_140      1 RES        0.060000
    3699 H            7.5934    18.1606    11.2394 opls_140      1 RES        0.060000
    3700 C           29.7851    31.5583     8.5111 opls_135      1 RES       -0.180000
    3701 C           29.1979    31.5223     7.0998 opls_157      1 RES        0.145000
    3702 O           30.1112    31.3670     6.0368 opls_154      1 RES       -0.683000
    3703 H           30.7230    30.6851     6.2689 opls_155      1 RES        0.418000
    3704 H           28.6170    32.4409     7.0179 opls_140      1 RES        0.060000
    3705 H           28.4771    30.7213     6.9354 opls_140      1 RES        0.060000
    3706 H           29.9431    30.5000     8.7191 opls_140      1 RES        0.060000
    3707 H           29.0529    31.9320     9.2269 opls_140      1 RES        0.060000
    3708 H           30.6925    32.1432     8.6612 opls_140      1 RES        0.060000
    3709 C           18.0712    17.3849     2.6288 opls_135      1 RES       -0.180000
    3710 C           19.5120    17.8402     2.8624 opls_157      1 RES        0.145000
    3711 O           20.2187    17.2003     3.9013 opls_154      1 RES       -0.683000
    3712 H           20.0635    16.2704     3.8364 opls_155      1 RES        0.418000
    3713 H           19.4415    18.9179     3.0099 opls_140      1 RES        0.060000
    3714 H           20.1651    17.7196     1.9981 opls_140      1 RES        0.060000
    3715 H           18.2120    16.4697     2.0536 opls_140      1 RES        0.060000
    3716 H           17.5370    18.0951     1.9978 opls_140      1 RES        0.060000
    3717 H           17.4487    17.2218     3.5085 opls_140      1 RES        0.060000
    3718 C           15.3158    24.2758     5.5210 opls_135      1 RES       -0.180000
    3719 C           14.9335    23.2257     6.5646 opls_157      1 RES        0.145000
    3720 O           15.9872    22.4720     7.1212 opls_154      1 RES       -0.683000
    3721 H           16.6914    23.0631     7.3394 opls_155      1 RES        0.418000
    3722 H           14.1912    22.6000     6.0690 opls_140      1 RES        0.060000
    3723 H           14.4199    23.6288     7.4374 opls_140      1 RES        0.060000
    3724 H           15.6603    25.1012     6.1440 opls_140      1 RES        0.060000
    3725 H           14.4372    24.6169     4.9734 opls_140      1 RES        0.060000
    3726 H           16.0567    23.9923     4.7735 opls_140      1 RES        0.060000
    3727 C           19.3956    24.3694    17.5511 opls_135      1 RES       -0.180000
    3728 C           18.4240    24.0450    16.4159 opls_157      1 RES        0.145000
    3729 O           17.7167    25.1294    15.8573 opls_154      1 RES       -0.683000
    3730 H           18.3246    25.8393    15.7175 opls_155      1 RES        0.418000
    3731 H           17.7611    23.2840    16.8276 opls_140      1 RES        0.060000
    3732 H           18.8886    23.5713    15.5511 opls_140      1 RES        0.060000
    3733 H           20.2657    24.7379    17.0078 opls_140      1 RES        0.060000
    3734 H           19.6926    23.4632    18.0789 opls_140      1 RES        0.060000
    3735 H           19.0602    25.0754    18.3108 opls_140      1 RES        0.060000
    3736 C           19.5816    27.3984    19.0106 opls_135      1 RES       -0.180000
    3737 C           19.5073    28.9249    18.9656 opls_157      1 RES        0.145000
    3738 O           20.7322    29.6169    18.8721 opls_154      1 RES       -0.683000
    3739 H           21.2648    29.1899    18.2186 opls_155      1 RES        0.418000
    3740 H           18.9406    29.2010    19.8549 opls_140      1 RES        0.060000
    3741 H           18.9270    29.3202    18.1319 opls_140      1 RES        0.060000
    3742 H           19.7155    27.1458    17.9587 opls_140      1 RES        0.060000
    3743 H           18.6326    26.9727    19.3364 opls_140      1 RES        0.060000
    3744 H           20.3534    26.9529    19.6383 opls_140      1 RES        0.060000
    3745 C           20.9471    26.0276    24.6625 opls_135      1 RES       -0.180000
    3746 C           21.1243    25.0011    23.5432 opls_157      1 RES        0.145000
    3747 O           20.9189    25.4582    22.2253 opls_154      1 RES       -0.683000
    3748 H           21.3618    26.2872    22.1267 opls_155      1 RES        0.418000
    3749 H           20.4543    24.1833    23.8087 opls_140      1 RES        0.060000
    3750 H           22.1149    24.5481    23.5043 opls_140      1 RES        0.060000
    3751 H           21.8966    26.5622    24.6336 opls_140      1 RES        0.060000
    3752 H           20.8721    25.5357    25.6323 opls_140      1 RES        0.060000
    3753 H           20.0957    26.7045    24.5911 opls_140      1 RES        0.060000
    3754 C            7.2672     5.9815    16.0053 opls_135      1 RES       -0.180000
    3755 C            7.8556     4.8708    15.1349 opls_157      1 RES        0.145000
    3756 O            7.0480     4.3958    14.0812 opls_154      1 RES       -0.683000
    3757 H            6.6717     5.1404    13.6373 opls_155      1 RES        0.418000
    3758 H            8.1280     4.0832    15.8374 opls_140      1 RES        0.060000
    3759 H            8.7894     5.1375    14.6398 opls_140      1 RES        0.060000
    3760 H            7.4385     6.8663    15.3922 opls_140      1 RES        0.060000
    3761 H            7.8401     6.0987    16.9252 opls_140      1 RES        0.060000
    3762 H            6.2223     5.8861    16.3004 opls_140      1 RES        0.060000
    3763 C           11.1867     8.0478    32.7628 opls_135      1 RES       -0.180000
    3764 C           11.5659     8.7001    31.4329 opls_157      1 RES        0.145000
    3765 O           11.2779     7.9681    30.2627 opls_154      1 RES       -0.683000
    3766 H           10.4034     7.6182    30.3396 opls_155      1 RES        0.418000
    3767 H           12.6272     8.9292    31.5294 opls_140      1 RES        0.060000
    3768 H           11.0881     9.6635    31.2549 opls_140      1 RES        0.060000
    3769 H           10.1181     8.2548    32.8215 opls_140      1 RES        0.060000
    3770 H           11.6701     8.5566    33.5968 opls_140      1 RES        0.060000
    3771 H           11.4033     6.9859    32.8794 opls_140      1 RES        0.060000
    3772 C            2.4864    32.3116    27.8925 opls_135      1 RES       -0.180000
    3773 C            3.9132    32.1375    28.4139 opls_157      1 RES        0.145000
    3774 O            4.7607    33.2612    28.3295 opls_154      1 RES       -0.683000
    3775 H            4.2799    34.0181    28.6279 opls_155      1 RES        0.418000
    3776 H            4.3049    31.2794    27.8678 opls_140      1 RES        0.060000
    3777 H            3.9739    31.8508    29.4638 opls_140      1 RES        0.060000
    3778 H            1.9999    32.8190    28.7255 opls_140      1 RES        0.060000
    3779 H            1.9999    31.3450    27.7622 opls_140      1 RES        0.060000
    3780 H            2.3585    32.8524    26.9548 opls_140      1 RES        0.060000
    3781 C           12.3182     3.2807    20.2974 opls_135      1 RES       -0.180000
    3782 C           12.6475     4.7508    20.5586 opls_157      1 RES        0.145000
    3783 O           11.5621     5.6011    20.8536 opls_154      1 RES       -0.683000
    3784 H           11.0050     5.1643    21.4796 opls_155      1 RES        0.418000
    3785 H           13.1994     5.0723    19.6753 opls_140      1 RES        0.060000
    3786 H           13.3330     4.9148    21.3901 opls_140      1 RES        0.060000
    3787 H           12.2058     2.8894    21.3085 opls_140      1 RES        0.060000
    3788 H           13.1628     2.7697    19.8352 opls_140      1 RES        0.060000
    3789 H           11.4479     3.0650    19.6776 opls_140      1 RES        0.060000
    3790 C           15.9004    20.9642    30.3292 opls_135      1 RES       -0.180000
    3791 C           16.9989    21.1421    29.2806 opls_157      1 RES        0.145000
    3792 O           16.6830    20.7608    27.9604 opls_154      1 RES       -0.683000
    3793 H           15.8258    21.0991    27.7512 opls_155      1 RES        0.418000
    3794 H           17.8531    20.5942    29.6785 opls_140      1 RES        0.060000
    3795 H           17.3519    22.1676    29.1721 opls_140      1 RES        0.060000
    3796 H           15.2779    21.8425    30.1582 opls_140      1 RES        0.060000
    3797 H           16.3096    21.0380    31.3368 opls_140      1 RES        0.060000
    3798 H           15.3213    20.0413    30.2962 opls_140      1 RES        0.060000
    3799 C           17.9510    33.5580     6.3501 opls_135      1 RES       -0.180000
    3800 C           19.1785    33.6838     5.4471 opls_157      1 RES        0.145000
    3801 O           20.2455    34.4670     5.9329 opls_154      1 RES       -0.683000
    3802 H           20.3949    34.2363     6.8371 opls_155      1 RES        0.418000
    3803 H           18.7883    34.0547     4.4993 opls_140      1 RES        0.060000
    3804 H           19.6517    32.7333     5.2005 opls_140      1 RES        0.060000
    3805 H           18.2687    32.7957     7.0614 opls_140      1 RES        0.060000
    3806 H           17.1002    33.1616     5.7959 opls_140      1 RES        0.060000
    3807 H           17.6022    34.4618     6.8496 opls_140      1 RES        0.060000
    3808 C            7.7764    20.0644    16.7142 opls_135      1 RES       -0.180000
    3809 C            8.1326    20.0807    15.2274 opls_157      1 RES        0.145000
    3810 O            7.2526    19.4053    14.3570 opls_154      1 RES       -0.683000
    3811 H            6.3671    19.6364    14.5928 opls_155      1 RES        0.418000
    3812 H            9.1475    19.6857    15.1813 opls_140      1 RES        0.060000
    3813 H            8.2024    21.0788    14.7950 opls_140      1 RES        0.060000
    3814 H            7.0177    20.8447    16.7752 opls_140      1 RES        0.060000
    3815 H            8.6259    20.3787    17.3206 opls_140      1 RES        0.060000
    3816 H            7.4265    19.1217    17.1350 opls_140      1 RES        0.060000
    3817 C           28.5568    25.3454    10.8001 opls_135      1 RES       -0.180000
    3818 C           27.8355    26.6613    10.5068 opls_157      1 RES        0.145000
    3819 O           26.6419    26.5775     9.7609 opls_154      1 RES       -0.683000
    3820 H           26.1239    25.8680    10.1092 opls_155      1 RES        0.418000
    3821 H           28.5856    27.2863    10.0222 opls_140      1 RES        0.060000
    3822 H           27.5415    27.2182    11.3964 opls_140      1 RES        0.060000
    3823 H           27.9849    24.9549    11.6419 opls_140      1 RES        0.060000
    3824 H           29.5741    25.5288    11.1461 opls_140      1 RES        0.060000
    3825 H           28.6309    24.6229     9.9873 opls_140      1 RES        0.060000
    3826 C           18.3697    28.6793    31.8361 opls_135      1 RES       -0.180000
    3827 C           18.8373    30.1323    31.9261 opls_157      1 RES        0.145000
    3828 O           19.5151    30.5085    33.1039 opls_154      1 RES       -0.683000
    3829 H           20.1470    29.8366    33.3097 opls_155      1 RES        0.418000
    3830 H           17.9376    30.7239    31.7572 opls_140      1 RES        0.060000
    3831 H           19.5210    30.4322    31.1319 opls_140      1 RES        0.060000
    3832 H           19.2854    28.1628    31.5485 opls_140      1 RES        0.060000
    3833 H           17.6489    28.5527    31.0283 opls_140      1 RES        0.060000
    3834 H           17.9178    28.2427    32.7267 opls_140      1 RES        0.060000
    3835 C           20.5144    19.1875    25.2091 opls_135      1 RES       -0.180000
    3836 C           20.1704    19.8854    23.8929 opls_157      1 RES        0.145000
    3837 O           21.2545    20.2821    23.0833 opls_154      1 RES       -0.683000
    3838 H           21.8735    19.5690    23.0465 opls_155      1 RES        0.418000
    3839 H           19.5380    20.7250    24.1815 opls_140      1 RES        0.060000
    3840 H           19.5535    19.2908    23.2191 opls_140      1 RES        0.060000
    3841 H           20.7217    18.1694    24.8796 opls_140      1 RES        0.060000
    3842 H           19.6473    19.1533    25.8687 opls_140      1 RES        0.060000
    3843 H           21.3346    19.6012    25.7958 opls_140      1 RES        0.060000
    3844 C            3.6646     8.0753    18.0037 opls_135      1 RES       -0.180000
    3845 C            3.0639     8.7787    19.2211 opls_157      1 RES        0.145000
    3846 O            3.3468     8.2156    20.4824 opls_154      1 RES       -0.683000
    3847 H            4.2678     8.0064    20.5139 opls_155      1 RES        0.418000
    3848 H            1.9943     8.8227    19.0158 opls_140      1 RES        0.060000
    3849 H            3.3691     9.8192    19.3324 opls_140      1 RES        0.060000
    3850 H            4.6895     8.4464    18.0089 opls_140      1 RES        0.060000
    3851 H            3.1914     8.4189    17.0838 opls_140      1 RES        0.060000
    3852 H            3.6255     6.9861    17.9847 opls_140      1 RES        0.060000
    3853 C           17.5226    31.3825    18.9870 opls_135      1 RES       -0.180000
    3854 C           16.4174    31.9125    18.0730 opls_157      1 RES        0.145000
    3855 O           16.5040    31.5690    16.7083 opls_154      1 RES       -0.683000
    3856 H           16.7130    30.6494    16.6468 opls_155      1 RES        0.418000
    3857 H           16.4204    32.9910    18.2313 opls_140      1 RES        0.060000
    3858 H           15.4136    31.5928    18.3530 opls_140      1 RES        0.060000
    3859 H           17.2014    30.3556    19.1610 opls_140      1 RES        0.060000
    3860 H           17.5149    31.9002    19.9462 opls_140      1 RES        0.060000
    3861 H           18.5462    31.4322    18.6157 opls_140      1 RES        0.060000
    3862 C           27.3004     2.7918    24.4041 opls_135      1 RES       -0.180000
    3863 C           26.4523     2.6622    25.6696 opls_157      1 RES        0.145000
    3864 O           27.1167     2.2333    26.8370 opls_154      1 RES       -0.683000
    3865 H           27.9297     2.7099    26.9074 opls_155      1 RES        0.418000
    3866 H           25.6350     1.9980    25.3886 opls_140      1 RES        0.060000
    3867 H           25.9656     3.5872    25.9788 opls_140      1 RES        0.060000
    3868 H           27.7888     3.7546    24.5548 opls_140      1 RES        0.060000
    3869 H           26.6684     2.8746    23.5198 opls_140      1 RES        0.060000
    3870 H           28.0187     1.9980    24.1990 opls_140      1 RES        0.060000
    3871 C           25.6109    13.5132    33.1303 opls_135      1 RES       -0.180000
    3872 C           25.6832    12.0494    33.5662 opls_157      1 RES        0.145000
    3873 O           26.9567    11.5533    33.9132 opls_154      1 RES       -0.683000
    3874 H           27.3830    12.1911    34.4650 opls_155      1 RES        0.418000
    3875 H           25.2297    11.4933    32.7458 opls_140      1 RES        0.060000
    3876 H           25.0712    11.8109    34.4361 opls_140      1 RES        0.060000
    3877 H           25.6230    14.0364    34.0865 opls_140      1 RES        0.060000
    3878 H           24.6581    13.7276    32.6462 opls_140      1 RES        0.060000
    3879 H           26.3890    13.8745    32.4580 opls_140      1 RES        0.060000
    3880 C           32.3493    29.8678    27.2944 opls_135      1 RES       -0.180000
    3881 C           33.6705    30.4103    26.7485 opls_157      1 RES        0.145000
    3882 O           34.2787    31.4515    27.4794 opls_154      1 RES       -0.683000
    3883 H           34.2490    31.2264    28.3967 opls_155      1 RES        0.418000
    3884 H           33.4483    30.6983    25.7210 opls_140      1 RES        0.060000
    3885 H           34.4599    29.6635    26.6640 opls_140      1 RES        0.060000
    3886 H           32.6873    29.1989    28.0859 opls_140      1 RES        0.060000
    3887 H           31.8380    29.2640    26.5447 opls_140      1 RES        0.060000
    3888 H           31.6216    30.5937    27.6573 opls_140      1 RES        0.060000
    3889 C            8.5396     7.3026    12.5825 opls_135      1 RES       -0.180000
    3890 C            8.3874     6.3174    11.4231 opls_157      1 RES        0.145000
    3891 O            8.8478     5.0030    11.6435 opls_154      1 RES       -0.683000
    3892 H            8.5455     4.7216    12.4934 opls_155      1 RES        0.418000
    3893 H            8.8890     6.7983    10.5833 opls_140      1 RES        0.060000
    3894 H            7.3597     6.1748    11.0892 opls_140      1 RES        0.060000
    3895 H            7.6896     7.0442    13.2140 opls_140      1 RES        0.060000
    3896 H            8.4003     8.3284    12.2412 opls_140      1 RES        0.060000
    3897 H            9.4788     7.2842    13.1353 opls_140      1 RES        0.060000
    3898 C           28.5795    11.4084     6.2932 opls_135      1 RES       -0.180000
    3899 C           28.3745    10.0041     5.7242 opls_157      1 RES        0.145000
    3900 O           27.0491     9.5251     5.6800 opls_154      1 RES       -0.683000
    3901 H           26.4961    10.2137     5.3436 opls_155      1 RES        0.418000
    3902 H           29.0276     9.3660     6.3194 opls_140      1 RES        0.060000
    3903 H           28.7241     9.8814     4.6991 opls_140      1 RES        0.060000
    3904 H           28.3138    12.0390     5.4447 opls_140      1 RES        0.060000
    3905 H           29.6304    11.5850     6.5224 opls_140      1 RES        0.060000
    3906 H           28.0178    11.6726     7.1892 opls_140      1 RES        0.060000
    3907 C           10.1201    33.5239    16.9067 opls_135      1 RES       -0.180000
    3908 C           11.4932    33.0326    16.4473 opls_157      1 RES        0.145000
    3909 O           12.5487    33.1408    17.3759 opls_154      1 RES       -0.683000
    3910 H           12.2380    32.8358    18.2146 opls_155      1 RES        0.418000
    3911 H           11.6908    33.5828    15.5273 opls_140      1 RES        0.060000
    3912 H           11.5179    31.9829    16.1547 opls_140      1 RES        0.060000
    3913 H            9.7650    32.6830    17.5025 opls_140      1 RES        0.060000
    3914 H            9.4451    33.6388    16.0586 opls_140      1 RES        0.060000
    3915 H           10.0836    34.4612    17.4618 opls_140      1 RES        0.060000
    3916 C           26.4652     4.0067     6.3693 opls_135      1 RES       -0.180000
    3917 C           26.4620     2.5305     6.7677 opls_157      1 RES        0.145000
    3918 O           26.8074     2.2331     8.1020 opls_154      1 RES       -0.683000
    3919 H           26.3493     2.8354     8.6680 opls_155      1 RES        0.418000
    3920 H           27.1248     2.0482     6.0492 opls_140      1 RES        0.060000
    3921 H           25.5006     2.0338     6.6366 opls_140      1 RES        0.060000
    3922 H           25.5071     4.3500     6.7594 opls_140      1 RES        0.060000
    3923 H           26.4411     4.1164     5.2851 opls_140      1 RES        0.060000
    3924 H           27.2934     4.6195     6.7249 opls_140      1 RES        0.060000
    3925 C           14.0194    19.5492    32.4696 opls_135      1 RES       -0.180000
    3926 C           13.7178    20.0941    33.8660 opls_157      1 RES        0.145000
    3927 O           14.7131    20.8951    34.4626 opls_154      1 RES       -0.683000
    3928 H           15.0260    21.5094    33.8163 opls_155      1 RES        0.418000
    3929 H           13.4808    19.2128    34.4621 opls_140      1 RES        0.060000
    3930 H           12.8240    20.7156    33.9203 opls_140      1 RES        0.060000
    3931 H           13.7955    20.4080    31.8368 opls_140      1 RES        0.060000
    3932 H           13.3248    18.7517    32.2055 opls_140      1 RES        0.060000
    3933 H           15.0216    19.1602    32.2895 opls_140      1 RES        0.060000
    3934 C           33.4119    25.9574     3.1762 opls_135      1 RES       -0.180000
    3935 C           33.5054    27.3060     3.8906 opls_157      1 RES        0.145000
    3936 O           33.7675    27.2731     5.2756 opls_154      1 RES       -0.683000
    3937 H           34.4621    26.6515     5.4312 opls_155      1 RES        0.418000
    3938 H           32.5671    27.8090     3.6568 opls_140      1 RES        0.060000
    3939 H           34.2800    27.9662     3.5003 opls_140      1 RES        0.060000
    3940 H           34.4619    25.7013     3.0347 opls_140      1 RES        0.060000
    3941 H           32.9616    26.0707     2.1901 opls_140      1 RES        0.060000
    3942 H           32.8623    25.1615     3.6789 opls_140      1 RES        0.060000
    3943 C            8.7815     9.6924    26.3769 opls_135      1 RES       -0.180000
    3944 C            9.7967     8.6040    26.7271 opls_157      1 RES        0.145000
    3945 O           10.7805     8.9376    27.6804 opls_154      1 RES       -0.683000
    3946 H           10.3582     9.3832    28.3988 opls_155      1 RES        0.418000
    3947 H           10.2278     8.3091    25.7704 opls_140      1 RES        0.060000
    3948 H            9.3542     7.6913    27.1263 opls_140      1 RES        0.060000
    3949 H            8.0832     9.6295    27.2115 opls_140      1 RES        0.060000
    3950 H            8.2368     9.4374    25.4678 opls_140      1 RES        0.060000
    3951 H            9.1607    10.7048    26.2379 opls_140      1 RES        0.060000
    3952 C           10.5914    30.0328    18.2062 opls_135      1 RES       -0.180000
    3953 C            9.2627    30.2957    17.4968 opls_157      1 RES        0.145000
    3954 O            9.3325    30.8846    16.2176 opls_154      1 RES       -0.683000
    3955 H           10.0069    30.4430    15.7244 opls_155      1 RES        0.418000
    3956 H            8.6871    30.8970    18.2006 opls_140      1 RES        0.060000
    3957 H            8.6584    29.4033    17.3338 opls_140      1 RES        0.060000
    3958 H           10.9246    29.1101    17.7311 opls_140      1 RES        0.060000
    3959 H           10.4321    29.8232    19.2640 opls_140      1 RES        0.060000
    3960 H           11.3494    30.8144    18.1554 opls_140      1 RES        0.060000
    3961 C           34.0125    25.3163    33.3812 opls_135      1 RES       -0.180000
    3962 C           32.4862    25.2705    33.3020 opls_157      1 RES        0.145000
    3963 O           31.7810    26.1629    34.1354 opls_154      1 RES       -0.683000
    3964 H           32.1925    27.0115    34.0763 opls_155      1 RES        0.418000
    3965 H           32.2298    24.2291    33.4967 opls_140      1 RES        0.060000
    3966 H           32.0834    25.4758    32.3102 opls_140      1 RES        0.060000
    3967 H           34.2470    26.1803    32.7595 opls_140      1 RES        0.060000
    3968 H           34.4524    24.4379    32.9090 opls_140      1 RES        0.060000
    3969 H           34.4604    25.3932    34.3719 opls_140      1 RES        0.060000
    3970 C           21.5418    30.7089    10.7243 opls_135      1 RES       -0.180000
    3971 C           20.8072    31.8534    11.4230 opls_157      1 RES        0.145000
    3972 O           19.4407    32.0123    11.1138 opls_154      1 RES       -0.683000
    3973 H           19.0318    31.1605    11.1316 opls_155      1 RES        0.418000
    3974 H           21.3926    32.7425    11.1885 opls_140      1 RES        0.060000
    3975 H           20.8168    31.7929    12.5113 opls_140      1 RES        0.060000
    3976 H           21.2424    29.8478    11.3218 opls_140      1 RES        0.060000
    3977 H           22.6213    30.8227    10.8229 opls_140      1 RES        0.060000
    3978 H           21.3411    30.5587     9.6635 opls_140      1 RES        0.060000
    3979 C           18.6683     6.1561    19.8271 opls_135      1 RES       -0.180000
    3980 C           18.4310     7.3113    18.8540 opls_157      1 RES        0.145000
    3981 O           18.5244     7.0117    17.4793 opls_154      1 RES       -0.683000
    3982 H           18.0556     6.2070    17.3188 opls_155      1 RES        0.418000
    3983 H           19.1386     8.0816    19.1606 opls_140      1 RES        0.060000
    3984 H           17.4514     7.7802    18.9466 opls_140      1 RES        0.060000
    3985 H           17.7068     5.6428    19.8100 opls_140      1 RES        0.060000
    3986 H           18.8287     6.5276    20.8392 opls_140      1 RES        0.060000
    3987 H           19.4953     5.4801    19.6099 opls_140      1 RES        0.060000
    3988 C           10.7441    27.6949    23.6947 opls_135      1 RES       -0.180000
    3989 C           11.7686    28.3534    22.7702 opls_157      1 RES        0.145000
    3990 O           11.3289    28.6887    21.4731 opls_154      1 RES       -0.683000
    3991 H           10.4819    29.1015    21.5447 opls_155      1 RES        0.418000
    3992 H           12.6135    27.6649    22.7578 opls_140      1 RES        0.060000
    3993 H           12.1777    29.2894    23.1504 opls_140      1 RES        0.060000
    3994 H           10.1684    28.5520    24.0439 opls_140      1 RES        0.060000
    3995 H           11.2330    27.2479    24.5603 opls_140      1 RES        0.060000
    3996 H           10.1059    26.9225    23.2654 opls_140      1 RES        0.060000
    3997 C           17.0550    17.8572    28.7458 opls_135      1 RES       -0.180000
    3998 C           18.0608    18.3842    27.7219 opls_157      1 RES        0.145000
    3999 O           17.6309    18.4374    26.3801 opls_154      1 RES       -0.683000
    4000 H           16.7609    18.8061    26.3620 opls_155      1 RES        0.418000
    4001 H           18.9426    17.7567    27.8514 opls_140      1 RES        0.060000
    4002 H           18.4094    19.3982    27.9182 opls_140      1 RES        0.060000
    4003 H           16.4254    18.7304    28.9169 opls_140      1 RES        0.060000
    4004 H           17.5494    17.6144    29.6864 opls_140      1 RES        0.060000
    4005 H           16.4697    16.9808    28.4676 opls_140      1 RES        0.060000
    4006 C            3.0125    19.1943    26.6782 opls_135      1 RES       -0.180000
    4007 C            3.6842    20.4468    26.1144 opls_157      1 RES        0.145000
    4008 O            3.5049    21.6431    26.8389 opls_154      1 RES       -0.683000
    4009 H            3.6363    21.4568    27.7560 opls_155      1 RES        0.418000
    4010 H            3.3166    20.5215    25.0910 opls_140      1 RES        0.060000
    4011 H            4.7669    20.3681    26.0164 opls_140      1 RES        0.060000
    4012 H            3.7080    18.8965    27.4629 opls_140      1 RES        0.060000
    4013 H            2.9896    18.3977    25.9345 opls_140      1 RES        0.060000
    4014 H            1.9944    19.2979    27.0535 opls_140      1 RES        0.060000
    4015 C           19.5718    26.5797    33.6606 opls_135      1 RES       -0.180000
    4016 C           20.4050    25.3153    33.8726 opls_157      1 RES        0.145000
    4017 O           19.7494    24.2155    34.4631 opls_154      1 RES       -0.683000
    4018 H           18.9069    24.1143    34.0472 opls_155      1 RES        0.418000
    4019 H           21.2672    25.6455    34.4520 opls_140      1 RES        0.060000
    4020 H           20.8271    24.8991    32.9578 opls_140      1 RES        0.060000
    4021 H           19.0212    26.3398    32.7510 opls_140      1 RES        0.060000
    4022 H           20.2121    27.4352    33.4457 opls_140      1 RES        0.060000
    4023 H           18.9086    26.8839    34.4704 opls_140      1 RES        0.060000
    4024 C           10.8746    15.7109    33.1461 opls_135      1 RES       -0.180000
    4025 C           11.1524    17.2092    33.2721 opls_157      1 RES        0.145000
    4026 O           10.0875    18.0158    33.7233 opls_154      1 RES       -0.683000
    4027 H            9.6829    17.5868    34.4618 opls_155      1 RES        0.418000
    4028 H           11.5121    17.5081    32.2875 opls_140      1 RES        0.060000
    4029 H           11.9664    17.4576    33.9531 opls_140      1 RES        0.060000
    4030 H           10.9738    15.3734    34.1778 opls_140      1 RES        0.060000
    4031 H           11.6512    15.2200    32.5596 opls_140      1 RES        0.060000
    4032 H            9.9212    15.4134    32.7097 opls_140      1 RES        0.060000
    4033 C           26.9445    13.1881    22.6444 opls_135      1 RES       -0.180000
    4034 C           25.9648    13.9287    23.5553 opls_157      1 RES        0.145000
    4035 O           26.4918    14.4711    24.7453 opls_154      1 RES       -0.683000
    4036 H           27.3044    14.9067    24.5382 opls_155      1 RES        0.418000
    4037 H           25.1654    13.2120    23.7433 opls_140      1 RES        0.060000
    4038 H           25.4715    14.7789    23.0843 opls_140      1 RES        0.060000
    4039 H           27.4380    14.0095    22.1250 opls_140      1 RES        0.060000
    4040 H           26.4114    12.5967    21.9000 opls_140      1 RES        0.060000
    4041 H           27.6603    12.5171    23.1192 opls_140      1 RES        0.060000
    4042 C           28.0870     9.8953    24.2719 opls_135      1 RES       -0.180000
    4043 C           26.6112     9.6087    24.5508 opls_157      1 RES        0.145000
    4044 O           26.3176     8.8728    25.7171 opls_154      1 RES       -0.683000
    4045 H           26.8320     9.2250    26.4273 opls_155      1 RES        0.418000
    4046 H           26.2488     9.1181    23.6474 opls_140      1 RES        0.060000
    4047 H           25.9932    10.5010    24.6502 opls_140      1 RES        0.060000
    4048 H           28.2830    10.7416    24.9303 opls_140      1 RES        0.060000
    4049 H           28.2299    10.2328    23.2454 opls_140      1 RES        0.060000
    4050 H           28.7942     9.0816    24.4324 opls_140      1 RES        0.060000
    4051 C           10.5173     3.0358    33.0220 opls_135      1 RES       -0.180000
    4052 C            9.0311     2.8819    33.3467 opls_157      1 RES        0.145000
    4053 O            8.1627     2.6681    32.2566 opls_154      1 RES       -0.683000
    4054 H            8.5518     2.0190    31.6905 opls_155      1 RES        0.418000
    4055 H            8.7765     3.7788    33.9113 opls_140      1 RES        0.060000
    4056 H            8.8035     2.0552    34.0197 opls_140      1 RES        0.060000
    4057 H           10.8311     1.9998    32.8949 opls_140      1 RES        0.060000
    4058 H           11.0604     3.4456    33.8736 opls_140      1 RES        0.060000
    4059 H           10.7807     3.6502    32.1611 opls_140      1 RES        0.060000
    4060 C           31.9824    11.0272    16.0307 opls_135      1 RES       -0.180000
    4061 C           30.5495    10.7927    16.5100 opls_157      1 RES        0.145000
    4062 O           30.3934    10.0922    17.7237 opls_154      1 RES       -0.683000
    4063 H           31.0074    10.4440    18.3500 opls_155      1 RES        0.418000
    4064 H           30.0564    10.2938    15.6757 opls_140      1 RES        0.060000
    4065 H           29.9752    11.7057    16.6671 opls_140      1 RES        0.060000
    4066 H           32.2878    11.8813    16.6351 opls_140      1 RES        0.060000
    4067 H           31.9966    11.3372    14.9859 opls_140      1 RES        0.060000
    4068 H           32.6817    10.1956    16.1173 opls_140      1 RES        0.060000
    4069 C            4.3349    14.6332    11.0282 opls_135      1 RES       -0.180000
    4070 C            2.8543    14.4757    11.3761 opls_157      1 RES        0.145000
    4071 O            1.9995    14.0571    10.3358 opls_154      1 RES       -0.683000
    4072 H            2.4157    13.3416     9.8800 opls_155      1 RES        0.418000
    4073 H            2.5630    15.4408    11.7907 opls_140      1 RES        0.060000
    4074 H            2.6558    13.7590    12.1730 opls_140      1 RES        0.060000
    4075 H            4.6889    13.6030    11.0676 opls_140      1 RES        0.060000
    4076 H            4.8582    15.1944    11.8023 opls_140      1 RES        0.060000
    4077 H            4.5782    15.1119    10.0796 opls_140      1 RES        0.060000
    4078 C           17.1166    25.6781    20.8339 opls_135      1 RES       -0.180000
    4079 C           18.3849    25.0399    21.4014 opls_157      1 RES        0.145000
    4080 O           18.7704    25.4395    22.6975 opls_154      1 RES       -0.683000
    4081 H           18.0024    25.4406    23.2481 opls_155      1 RES        0.418000
    4082 H           19.1547    25.2440    20.6572 opls_140      1 RES        0.060000
    4083 H           18.3461    23.9528    21.4710 opls_140      1 RES        0.060000
    4084 H           16.3326    25.0934    21.3150 opls_140      1 RES        0.060000
    4085 H           17.0447    25.5100    19.7593 opls_140      1 RES        0.060000
    4086 H           16.9814    26.7483    20.9904 opls_140      1 RES        0.060000
    4087 C            4.0982    20.9555     6.7370 opls_135      1 RES       -0.180000
    4088 C            2.6853    20.3802     6.6338 opls_157      1 RES        0.145000
    4089 O            1.9980    20.1654     7.8461 opls_154      1 RES       -0.683000
    4090 H            2.1167    20.9269     8.3930 opls_155      1 RES        0.418000
    4091 H            2.8006    19.4647     6.0535 opls_140      1 RES        0.060000
    4092 H            1.9943    20.9922     6.0541 opls_140      1 RES        0.060000
    4093 H            3.9014    22.0172     6.8857 opls_140      1 RES        0.060000
    4094 H            4.6322    20.8455     5.7931 opls_140      1 RES        0.060000
    4095 H            4.7491    20.5491     7.5111 opls_140      1 RES        0.060000
    4096 C           18.3351    18.8372    10.6910 opls_135      1 RES       -0.180000
    4097 C           18.4545    17.5470    11.5027 opls_157      1 RES        0.145000
    4098 O           19.3464    16.5705    11.0137 opls_154      1 RES       -0.683000
    4099 H           20.1497    17.0011    10.7643 opls_155      1 RES        0.418000
    4100 H           17.4332    17.1745    11.5827 opls_140      1 RES        0.060000
    4101 H           18.7785    17.6949    12.5329 opls_140      1 RES        0.060000
    4102 H           19.2167    19.3914    11.0132 opls_140      1 RES        0.060000
    4103 H           17.4560    19.4063    10.9933 opls_140      1 RES        0.060000
    4104 H           18.2863    18.7437     9.6061 opls_140      1 RES        0.060000
    4105 C           33.7264    20.1470    17.5578 opls_135      1 RES       -0.180000
    4106 C           33.4762    20.8318    18.9018 opls_157      1 RES        0.145000
    4107 O           32.7989    22.0679    18.8673 opls_154      1 RES       -0.683000
    4108 H           32.0637    21.9867    18.2791 opls_155      1 RES        0.418000
    4109 H           34.4619    20.9105    19.3604 opls_140      1 RES        0.060000
    4110 H           32.8892    20.2391    19.6035 opls_140      1 RES        0.060000
    4111 H           32.7610    19.6832    17.3554 opls_140      1 RES        0.060000
    4112 H           34.4632    19.3502    17.6591 opls_140      1 RES        0.060000
    4113 H           34.0590    20.7740    16.7306 opls_140      1 RES        0.060000
    4114 C           14.6221     3.6092     3.5599 opls_135      1 RES       -0.180000
    4115 C           14.3329     5.0868     3.8261 opls_157      1 RES        0.145000
    4116 O           14.5572     5.5504     5.1386 opls_154      1 RES       -0.683000
    4117 H           15.3882     5.2116     5.4347 opls_155      1 RES        0.418000
    4118 H           13.3009     5.2292     3.5055 opls_140      1 RES        0.060000
    4119 H           14.9131     5.7742     3.2104 opls_140      1 RES        0.060000
    4120 H           15.7057     3.6068     3.4422 opls_140      1 RES        0.060000
    4121 H           14.1843     3.2921     2.6134 opls_140      1 RES        0.060000
    4122 H           14.2919     2.8911     4.3106 opls_140      1 RES        0.060000
    4123 C           13.0982    10.1964    12.1004 opls_135      1 RES       -0.180000
    4124 C           13.4359     9.4369    13.3837 opls_157      1 RES        0.145000
    4125 O           12.4754     9.4764    14.4153 opls_154      1 RES       -0.683000
    4126 H           11.6242     9.3251    14.0338 opls_155      1 RES        0.418000
    4127 H           14.3997     9.8378    13.6975 opls_140      1 RES        0.060000
    4128 H           13.6113     8.3708    13.2397 opls_140      1 RES        0.060000
    4129 H           12.4321     9.4994    11.5918 opls_140      1 RES        0.060000
    4130 H           13.9847    10.3224    11.4789 opls_140      1 RES        0.060000
    4131 H           12.6504    11.1846    12.2064 opls_140      1 RES        0.060000
    4132 C           21.8458    29.4133    27.8698 opls_135      1 RES       -0.180000
    4133 C           20.7590    28.8866    26.9322 opls_157      1 RES        0.145000
    4134 O           20.5555    29.6001    25.7332 opls_154      1 RES       -0.683000
    4135 H           21.4001    29.7895    25.3540 opls_155      1 RES        0.418000
    4136 H           19.8601    28.8423    27.5472 opls_140      1 RES        0.060000
    4137 H           20.9167    27.8620    26.5953 opls_140      1 RES        0.060000
    4138 H           22.7530    29.0215    27.4097 opls_140      1 RES        0.060000
    4139 H           21.7552    28.9658    28.8596 opls_140      1 RES        0.060000
    4140 H           21.8979    30.4916    28.0203 opls_140      1 RES        0.060000
    4141 C           15.1297    26.5931    12.3731 opls_135      1 RES       -0.180000
    4142 C           15.7871    25.8266    13.5212 opls_157      1 RES        0.145000
    4143 O           14.9228    25.2175    14.4539 opls_154      1 RES       -0.683000
    4144 H           14.2349    24.7780    13.9777 opls_155      1 RES        0.418000
    4145 H           16.4594    26.5475    13.9865 opls_140      1 RES        0.060000
    4146 H           16.4334    25.0093    13.2013 opls_140      1 RES        0.060000
    4147 H           14.8570    25.7893    11.6893 opls_140      1 RES        0.060000
    4148 H           15.8547    27.2295    11.8657 opls_140      1 RES        0.060000
    4149 H           14.2775    27.2272    12.6175 opls_140      1 RES        0.060000
    4150 C           14.2075    15.2050    29.5386 opls_135      1 RES       -0.180000
    4151 C           14.4359    16.6825    29.8589 opls_157      1 RES        0.145000
    4152 O           14.3764    17.5828    28.7753 opls_154      1 RES       -0.683000
    4153 H           13.6215    17.3652    28.2502 opls_155      1 RES        0.418000
    4154 H           15.3984    16.7097    30.3697 opls_140      1 RES        0.060000
    4155 H           13.7284    17.0994    30.5757 opls_140      1 RES        0.060000
    4156 H           13.1208    15.1515    29.4730 opls_140      1 RES        0.060000
    4157 H           14.5217    14.5742    30.3702 opls_140      1 RES        0.060000
    4158 H           14.6900    14.8056    28.6465 opls_140      1 RES        0.060000
    4159 C           22.7529    22.9263    17.2644 opls_135      1 RES       -0.180000
    4160 C           21.6616    21.8721    17.0756 opls_157      1 RES        0.145000
    4161 O           21.1748    21.2474    18.2422 opls_154      1 RES       -0.683000
    4162 H           21.0246    21.9142    18.8948 opls_155      1 RES        0.418000
    4163 H           22.0846    21.1591    16.3678 opls_140      1 RES        0.060000
    4164 H           20.7593    22.2442    16.5904 opls_140      1 RES        0.060000
    4165 H           22.1756    23.8001    17.5664 opls_140      1 RES        0.060000
    4166 H           23.2363    23.1590    16.3156 opls_140      1 RES        0.060000
    4167 H           23.5506    22.7001    17.9719 opls_140      1 RES        0.060000
    4168 C           17.4320    13.9182    26.2943 opls_135      1 RES       -0.180000
    4169 C           17.1878    12.6912    25.4153 opls_157      1 RES        0.145000
    4170 O           18.3026    12.1749    24.7234 opls_154      1 RES       -0.683000
    4171 H           19.0331    12.1404    25.3219 opls_155      1 RES        0.418000
    4172 H           16.3822    12.9875    24.7435 opls_140      1 RES        0.060000
    4173 H           16.7985    11.8263    25.9525 opls_140      1 RES        0.060000
    4174 H           17.8617    13.4734    27.1919 opls_140      1 RES        0.060000
    4175 H           16.4896    14.3886    26.5750 opls_140      1 RES        0.060000
    4176 H           18.0641    14.7076    25.8878 opls_140      1 RES        0.060000
    4177 C            2.7760     6.3123    28.1056 opls_135      1 RES       -0.180000
    4178 C            2.5746     5.0515    27.2643 opls_157      1 RES        0.145000
    4179 O            1.9944     5.2248    25.9910 opls_154      1 RES       -0.683000
    4180 H            2.4119     5.9623    25.5729 opls_155      1 RES        0.418000
    4181 H            1.9916     4.3847    27.8996 opls_140      1 RES        0.060000
    4182 H            3.4927     4.5030    27.0534 opls_140      1 RES        0.060000
    4183 H            3.6882     6.7282    27.6778 opls_140      1 RES        0.060000
    4184 H            2.9828     6.0568    29.1448 opls_140      1 RES        0.060000
    4185 H            1.9642     7.0394    28.1203 opls_140      1 RES        0.060000
    4186 C           21.9374    11.1673     8.5324 opls_135      1 RES       -0.180000
    4187 C           21.2433    11.9201     9.6679 opls_157      1 RES        0.145000
    4188 O           21.3267    11.3462    10.9531 opls_154      1 RES       -0.683000
    4189 H           22.2193    11.0714    11.0977 opls_155      1 RES        0.418000
    4190 H           20.2133    12.0397     9.3321 opls_140      1 RES        0.060000
    4191 H           21.6069    12.9365     9.8187 opls_140      1 RES        0.060000
    4192 H           22.9779    11.4636     8.6653 opls_140      1 RES        0.060000
    4193 H           21.6075    11.5382     7.5620 opls_140      1 RES        0.060000
    4194 H           21.8222    10.0837     8.5061 opls_140      1 RES        0.060000
    4195 C            7.1780    18.8100    33.5797 opls_135      1 RES       -0.180000
    4196 C            5.9705    19.7453    33.6507 opls_157      1 RES        0.145000
    4197 O            6.1758    21.0006    34.2591 opls_154      1 RES       -0.683000
    4198 H            6.9843    21.3615    33.9288 opls_155      1 RES        0.418000
    4199 H            5.1974    19.1622    34.1511 opls_140      1 RES        0.060000
    4200 H            5.5437    19.9992    32.6804 opls_140      1 RES        0.060000
    4201 H            7.7228    19.2061    32.7227 opls_140      1 RES        0.060000
    4202 H            6.8683    17.7938    33.3359 opls_140      1 RES        0.060000
    4203 H            7.8086    18.7381    34.4659 opls_140      1 RES        0.060000
    4204 C           25.5402    23.6459    12.2997 opls_135      1 RES       -0.180000
    4205 C           26.0053    24.1785    13.6554 opls_157      1 RES        0.145000
    4206 O           26.8836    25.2814    13.6359 opls_154      1 RES       -0.683000
    4207 H           26.5547    25.9112    13.0129 opls_155      1 RES        0.418000
    4208 H           26.4354    23.3134    14.1602 opls_140      1 RES        0.060000
    4209 H           25.1968    24.5081    14.3078 opls_140      1 RES        0.060000
    4210 H           24.7503    24.3497    12.0374 opls_140      1 RES        0.060000
    4211 H           25.0861    22.6605    12.4046 opls_140      1 RES        0.060000
    4212 H           26.2885    23.5605    11.5117 opls_140      1 RES        0.060000
    4213 C           22.2052     4.7058    13.7441 opls_135      1 RES       -0.180000
    4214 C           22.7765     3.5835    12.8770 opls_157      1 RES        0.145000
    4215 O           22.2482     3.4559    11.5759 opls_154      1 RES       -0.683000
    4216 H           22.1972     4.3174    11.1909 opls_155      1 RES        0.418000
    4217 H           22.6427     2.6792    13.4706 opls_140      1 RES        0.060000
    4218 H           23.8516     3.6504    12.7099 opls_140      1 RES        0.060000
    4219 H           22.7439     5.5775    13.3725 opls_140      1 RES        0.060000
    4220 H           22.4794     4.5665    14.7898 opls_140      1 RES        0.060000
    4221 H           21.1256     4.8544    13.7234 opls_140      1 RES        0.060000
    4222 C           21.8530     9.5359    25.4660 opls_135      1 RES       -0.180000
    4223 C           23.2287     8.9559    25.1361 opls_157      1 RES        0.145000
    4224 O           23.6018     7.7804    25.8195 opls_154      1 RES       -0.683000
    4225 H           22.8674     7.1858    25.8093 opls_155      1 RES        0.418000
    4226 H           23.9244     9.7767    25.3103 opls_140      1 RES        0.060000
    4227 H           23.3640     8.6943    24.0866 opls_140      1 RES        0.060000
    4228 H           21.1916     8.9057    24.8713 opls_140      1 RES        0.060000
    4229 H           21.7625    10.5565    25.0943 opls_140      1 RES        0.060000
    4230 H           21.5583     9.5603    26.5151 opls_140      1 RES        0.060000
    4231 C            9.6271    25.8230    26.2651 opls_135      1 RES       -0.180000
    4232 C            9.8348    24.4304    25.6691 opls_157      1 RES        0.145000
    4233 O            8.6742    23.6759    25.4010 opls_154      1 RES       -0.683000
    4234 H            8.0458    24.2395    24.9761 opls_155      1 RES        0.418000
    4235 H           10.5055    23.9279    26.3660 opls_140      1 RES        0.060000
    4236 H           10.3671    24.4257    24.7179 opls_140      1 RES        0.060000
    4237 H            9.3722    26.4121    25.3842 opls_140      1 RES        0.060000
    4238 H           10.5603    26.2157    26.6690 opls_140      1 RES        0.060000
    4239 H            8.8809    25.9242    27.0532 opls_140      1 RES        0.060000
    4240 C           33.7466    11.9539    31.0886 opls_135      1 RES       -0.180000
    4241 C           33.6419    11.0608    29.8519 opls_157      1 RES        0.145000
    4242 O           33.6463     9.6683    30.0732 opls_154      1 RES       -0.683000
    4243 H           33.0639     9.4807    30.7934 opls_155      1 RES        0.418000
    4244 H           34.4607    11.3821    29.2081 opls_140      1 RES        0.060000
    4245 H           32.7417    11.2217    29.2588 opls_140      1 RES        0.060000
    4246 H           32.7225    11.9471    31.4618 opls_140      1 RES        0.060000
    4247 H           33.9913    12.9784    30.8082 opls_140      1 RES        0.060000
    4248 H           34.4626    11.6630    31.8572 opls_140      1 RES        0.060000
    4249 C           32.5487    17.9611    20.5790 opls_135      1 RES       -0.180000
    4250 C           33.8799    17.9896    21.3306 opls_157      1 RES        0.145000
    4251 O           33.8174    18.2029    22.7230 opls_154      1 RES       -0.683000
    4252 H           33.1322    17.6563    23.0762 opls_155      1 RES        0.418000
    4253 H           34.4704    18.7499    20.8196 opls_140      1 RES        0.060000
    4254 H           34.4650    17.0745    21.2391 opls_140      1 RES        0.060000
    4255 H           32.1947    16.9501    20.7809 opls_140      1 RES        0.060000
    4256 H           32.7076    18.0491    19.5042 opls_140      1 RES        0.060000
    4257 H           31.8068    18.7138    20.8457 opls_140      1 RES        0.060000
    4258 C            2.9688     5.3121     5.4029 opls_135      1 RES       -0.180000
    4259 C            3.4517     3.9375     5.8667 opls_157      1 RES        0.145000
    4260 O            2.9296     3.4603     7.0864 opls_154      1 RES       -0.683000
    4261 H            1.9976     3.6162     7.0911 opls_155      1 RES        0.418000
    4262 H            4.5387     4.0165     5.8822 opls_140      1 RES        0.060000
    4263 H            3.2412     3.1295     5.1660 opls_140      1 RES        0.060000
    4264 H            1.9977     5.0773     4.9671 opls_140      1 RES        0.060000
    4265 H            3.6053     5.6993     4.6072 opls_140      1 RES        0.060000
    4266 H            2.8990     6.0983     6.1547 opls_140      1 RES        0.060000
    4267 C           21.0343    27.9042     9.7484 opls_135      1 RES       -0.180000
    4268 C           19.7993    28.6320     9.2164 opls_157      1 RES        0.145000
    4269 O           19.9197    29.2443     7.9520 opls_154      1 RES       -0.683000
    4270 H           20.3496    28.6378     7.3687 opls_155      1 RES        0.418000
    4271 H           19.5382    29.3435     9.9998 opls_140      1 RES        0.060000
    4272 H           18.9182    27.9991     9.1102 opls_140      1 RES        0.060000
    4273 H           20.9866    26.9549     9.2149 opls_140      1 RES        0.060000
    4274 H           20.9321    27.6928    10.8128 opls_140      1 RES        0.060000
    4275 H           21.9988    28.3956     9.6207 opls_140      1 RES        0.060000
    4276 C           27.8932     5.2082    20.9604 opls_135      1 RES       -0.180000
    4277 C           26.8704     4.1121    20.6598 opls_157      1 RES        0.145000
    4278 O           25.9576     4.3658    19.6154 opls_154      1 RES       -0.683000
    4279 H           26.4365     4.7238    18.8836 opls_155      1 RES        0.418000
    4280 H           26.3724     3.9292    21.6119 opls_140      1 RES        0.060000
    4281 H           27.3099     3.1528    20.3865 opls_140      1 RES        0.060000
    4282 H           28.6397     5.0423    20.1837 opls_140      1 RES        0.060000
    4283 H           28.3729     5.0379    21.9243 opls_140      1 RES        0.060000
    4284 H           27.5358     6.2379    20.9691 opls_140      1 RES        0.060000
    4285 C            4.8137    26.0247    33.7771 opls_135      1 RES       -0.180000
    4286 C            5.7110    25.2216    32.8349 opls_157      1 RES        0.145000
    4287 O            7.0075    24.9187    33.2989 opls_154      1 RES       -0.683000
    4288 H            6.9400    24.6192    34.1927 opls_155      1 RES        0.418000
    4289 H            5.7246    25.7961    31.9086 opls_140      1 RES        0.060000
    4290 H            5.3073    24.2490    32.5535 opls_140      1 RES        0.060000
    4291 H            4.4564    25.2556    34.4619 opls_140      1 RES        0.060000
    4292 H            3.9499    26.4232    33.2450 opls_140      1 RES        0.060000
    4293 H            5.2664    26.8633    34.3061 opls_140      1 RES        0.060000
    4294 C           26.4728    13.8076     2.6256 opls_135      1 RES       -0.180000
    4295 C           26.3395    13.2089     4.0261 opls_157      1 RES        0.145000
    4296 O           25.0746    13.3097     4.6411 opls_154      1 RES       -0.683000
    4297 H           24.4163    13.0747     4.0052 opls_155      1 RES        0.418000
    4298 H           27.1247    13.6902     4.6091 opls_140      1 RES        0.060000
    4299 H           26.5651    12.1439     4.0808 opls_140      1 RES        0.060000
    4300 H           26.0380    13.0266     2.0017 opls_140      1 RES        0.060000
    4301 H           27.5211    13.9113     2.3457 opls_140      1 RES        0.060000
    4302 H           26.0070    14.7771     2.4490 opls_140      1 RES        0.060000
    4303 C            6.4257    24.8253    22.8549 opls_135      1 RES       -0.180000
    4304 C            7.2406    25.1578    21.6046 opls_157      1 RES        0.145000
    4305 O            8.5204    25.7125    21.8108 opls_154      1 RES       -0.683000
    4306 H            8.9521    25.2174    22.4901 opls_155      1 RES        0.418000
    4307 H            6.5941    25.8106    21.0180 opls_140      1 RES        0.060000
    4308 H            7.4348    24.3030    20.9568 opls_140      1 RES        0.060000
    4309 H            6.8576    23.8727    23.1616 opls_140      1 RES        0.060000
    4310 H            5.3801    24.6501    22.6018 opls_140      1 RES        0.060000
    4311 H            6.4309    25.5549    23.6647 opls_140      1 RES        0.060000
    4312 C           32.3503    24.9156    28.4793 opls_135      1 RES       -0.180000
    4313 C           33.7827    25.0435    28.9985 opls_157      1 RES        0.145000
    4314 O           34.4651    23.8419    29.2793 opls_154      1 RES       -0.683000
    4315 H           34.3154    23.2421    28.5645 opls_155      1 RES        0.418000
    4316 H           33.7041    25.6908    29.8719 opls_140      1 RES        0.060000
    4317 H           34.4583    25.5682    28.3229 opls_140      1 RES        0.060000
    4318 H           32.5095    24.6869    27.4255 opls_140      1 RES        0.060000
    4319 H           31.8295    25.8714    28.5370 opls_140      1 RES        0.060000
    4320 H           31.7060    24.1814    28.9630 opls_140      1 RES        0.060000
    4321 C           10.5111    10.4942     9.4023 opls_135      1 RES       -0.180000
    4322 C            9.8631     9.5117    10.3783 opls_157      1 RES        0.145000
    4323 O            8.5761     9.0422    10.0446 opls_154      1 RES       -0.683000
    4324 H            8.5742     8.8080     9.1291 opls_155      1 RES        0.418000
    4325 H            9.8824    10.0235    11.3404 opls_140      1 RES        0.060000
    4326 H           10.4344     8.5972    10.5379 opls_140      1 RES        0.060000
    4327 H           10.8873     9.8287     8.6253 opls_140      1 RES        0.060000
    4328 H           11.3680    10.9883     9.8602 opls_140      1 RES        0.060000
    4329 H            9.8801    11.2831     8.9930 opls_140      1 RES        0.060000
    4330 C           20.0227     9.1344     2.7702 opls_135      1 RES       -0.180000
    4331 C           19.0934    10.0800     3.5318 opls_157      1 RES        0.145000
    4332 O           18.4108    11.0494     2.7684 opls_154      1 RES       -0.683000
    4333 H           18.0629    10.6283     1.9973 opls_155      1 RES        0.418000
    4334 H           19.7223    10.5252     4.3027 opls_140      1 RES        0.060000
    4335 H           18.2952     9.5784     4.0789 opls_140      1 RES        0.060000
    4336 H           19.3215     8.4078     2.3597 opls_140      1 RES        0.060000
    4337 H           20.6856     8.6061     3.4554 opls_140      1 RES        0.060000
    4338 H           20.6571     9.5699     1.9982 opls_140      1 RES        0.060000
    4339 C           23.6398    33.9624    22.2907 opls_135      1 RES       -0.180000
    4340 C           24.0598    32.5246    21.9839 opls_157      1 RES        0.145000
    4341 O           24.4464    32.2463    20.6568 opls_154      1 RES       -0.683000
    4342 H           25.0212    32.9371    20.3645 opls_155      1 RES        0.418000
    4343 H           23.2166    31.9145    22.3080 opls_140      1 RES        0.060000
    4344 H           24.9039    32.1693    22.5750 opls_140      1 RES        0.060000
    4345 H           24.6022    34.4623    22.4002 opls_140      1 RES        0.060000
    4346 H           23.1242    34.0203    23.2493 opls_140      1 RES        0.060000
    4347 H           23.0006    34.4633    21.5636 opls_140      1 RES        0.060000
    4348 C           33.6132    31.8542    32.3332 opls_135      1 RES       -0.180000
    4349 C           32.9468    31.1285    33.5024 opls_157      1 RES        0.145000
    4350 O           33.5225    29.9044    33.9000 opls_154      1 RES       -0.683000
    4351 H           34.4601    30.0161    33.9374 opls_155      1 RES        0.418000
    4352 H           31.9043    31.0199    33.2031 opls_140      1 RES        0.060000
    4353 H           32.9126    31.7059    34.4263 opls_140      1 RES        0.060000
    4354 H           34.4602    32.3388    32.8188 opls_140      1 RES        0.060000
    4355 H           32.9634    32.6362    31.9403 opls_140      1 RES        0.060000
    4356 H           33.9230    31.2504    31.4802 opls_140      1 RES        0.060000
    4357 C            5.2430    30.8920    11.0256 opls_135      1 RES       -0.180000
    4358 C            5.1212    29.5971    11.8295 opls_157      1 RES        0.145000
    4359 O            6.3207    28.9136    12.1162 opls_154      1 RES       -0.683000
    4360 H            6.9598    29.5458    12.4077 opls_155      1 RES        0.418000
    4361 H            4.4188    28.9849    11.2640 opls_140      1 RES        0.060000
    4362 H            4.6579    29.7202    12.8084 opls_140      1 RES        0.060000
    4363 H            5.5412    31.6082    11.7913 opls_140      1 RES        0.060000
    4364 H            4.2719    31.2026    10.6401 opls_140      1 RES        0.060000
    4365 H            5.9282    30.8926    10.1779 opls_140      1 RES        0.060000
    4366 C           23.4028    14.4358    17.3369 opls_135      1 RES       -0.180000
    4367 C           23.4646    14.1409    18.8359 opls_157      1 RES        0.145000
    4368 O           23.0706    12.8504    19.2451 opls_154      1 RES       -0.683000
    4369 H           23.4679    12.2207    18.6631 opls_155      1 RES        0.418000
    4370 H           22.8641    14.9248    19.2975 opls_140      1 RES        0.060000
    4371 H           24.4562    14.2554    19.2739 opls_140      1 RES        0.060000
    4372 H           24.3212    13.9731    16.9757 opls_140      1 RES        0.060000
    4373 H           23.4740    15.5071    17.1486 opls_140      1 RES        0.060000
    4374 H           22.5269    14.0826    16.7928 opls_140      1 RES        0.060000
    4375 C           12.1544    13.0088     7.0969 opls_135      1 RES       -0.180000
    4376 C           12.6823    14.2430     7.8289 opls_157      1 RES        0.145000
    4377 O           14.0518    14.5377     7.6687 opls_154      1 RES       -0.683000
    4378 H           14.2684    14.4518     6.7529 opls_155      1 RES        0.418000
    4379 H           12.4106    14.0836     8.8724 opls_140      1 RES        0.060000
    4380 H           12.1873    15.1736     7.5513 opls_140      1 RES        0.060000
    4381 H           12.0187    13.3859     6.0832 opls_140      1 RES        0.060000
    4382 H           11.1748    12.7205     7.4782 opls_140      1 RES        0.060000
    4383 H           12.7724    12.1112     7.1186 opls_140      1 RES        0.060000
    4384 C           24.0382    11.9983    26.9234 opls_135      1 RES       -0.180000
    4385 C           24.0782    13.5153    27.1106 opls_157      1 RES        0.145000
    4386 O           24.9653    14.0103    28.0885 opls_154      1 RES       -0.683000
    4387 H           25.7925    13.5640    27.9914 opls_155      1 RES        0.418000
    4388 H           23.0438    13.7977    27.3064 opls_140      1 RES        0.060000
    4389 H           24.3531    14.0697    26.2133 opls_140      1 RES        0.060000
    4390 H           24.9178    11.8219    26.3044 opls_140      1 RES        0.060000
    4391 H           23.1616    11.7011    26.3478 opls_140      1 RES        0.060000
    4392 H           24.0424    11.3825    27.8228 opls_140      1 RES        0.060000
    4393 C           30.8481     2.9757     7.5687 opls_135      1 RES       -0.180000
    4394 C           29.3663     2.9491     7.1929 opls_157      1 RES        0.145000
    4395 O           29.0486     3.2220     5.8465 opls_154      1 RES       -0.683000
    4396 H           29.6435     2.7351     5.2970 opls_155      1 RES        0.418000
    4397 H           28.8932     3.6489     7.8818 opls_140      1 RES        0.060000
    4398 H           28.8736     1.9955     7.3827 opls_140      1 RES        0.060000
    4399 H           31.1877     1.9984     7.2254 opls_140      1 RES        0.060000
    4400 H           30.9738     3.0099     8.6509 opls_140      1 RES        0.060000
    4401 H           31.4540     3.7844     7.1601 opls_140      1 RES        0.060000
    4402 C           16.2363    33.8498    25.7817 opls_135      1 RES       -0.180000
    4403 C           16.2307    32.3339    25.5822 opls_157      1 RES        0.145000
    4404 O           16.5592    31.8626    24.2945 opls_154      1 RES       -0.683000
    4405 H           17.3179    32.3367    23.9900 opls_155      1 RES        0.418000
    4406 H           15.2378    32.0162    25.9004 opls_140      1 RES        0.060000
    4407 H           16.9179    31.7943    26.2340 opls_140      1 RES        0.060000
    4408 H           17.2986    34.0589    25.9082 opls_140      1 RES        0.060000
    4409 H           15.7315    34.1214    26.7088 opls_140      1 RES        0.060000
    4410 H           15.7914    34.4600    24.9957 opls_140      1 RES        0.060000
    4411 C           15.4856    19.8754     8.8339 opls_135      1 RES       -0.180000
    4412 C           15.5123    18.4535     8.2723 opls_157      1 RES        0.145000
    4413 O           14.3934    17.6414     8.5491 opls_154      1 RES       -0.683000
    4414 H           13.6123    18.1517     8.3991 opls_155      1 RES        0.418000
    4415 H           16.4408    18.0243     8.6486 opls_140      1 RES        0.060000
    4416 H           15.6017    18.4027     7.1872 opls_140      1 RES        0.060000
    4417 H           14.8531    20.3932     8.1129 opls_140      1 RES        0.060000
    4418 H           16.4764    20.3280     8.7923 opls_140      1 RES        0.060000
    4419 H           15.1285    20.0036     9.8557 opls_140      1 RES        0.060000
    4420 C           32.6698    28.8110    30.9455 opls_135      1 RES       -0.180000
    4421 C           31.5359    29.8219    30.7717 opls_157      1 RES        0.145000
    4422 O           30.3711    29.6059    31.5363 opls_154      1 RES       -0.683000
    4423 H           30.6314    29.3947    32.4199 opls_155      1 RES        0.418000
    4424 H           31.3344    29.8309    29.7005 opls_140      1 RES        0.060000
    4425 H           31.8115    30.8489    31.0118 opls_140      1 RES        0.060000
    4426 H           33.1381    29.1506    31.8693 opls_140      1 RES        0.060000
    4427 H           33.4036    28.9091    30.1454 opls_140      1 RES        0.060000
    4428 H           32.3980    27.7564    30.9898 opls_140      1 RES        0.060000
    4429 C            3.0267    10.6686     4.9417 opls_135      1 RES       -0.180000
    4430 C            2.8773     9.2747     5.5520 opls_157      1 RES        0.145000
    4431 O            2.7790     9.2048     6.9568 opls_154      1 RES       -0.683000
    4432 H            2.1738     9.8708     7.2451 opls_155      1 RES        0.418000
    4433 H            3.7266     8.7108     5.1661 opls_140      1 RES        0.060000
    4434 H            2.0000     8.7272     5.2076 opls_140      1 RES        0.060000
    4435 H            1.9992    11.0323     4.9502 opls_140      1 RES        0.060000
    4436 H            3.3482    10.6050     3.9021 opls_140      1 RES        0.060000
    4437 H            3.7083    11.3611     5.4356 opls_140      1 RES        0.060000
    4438 C            7.3877    13.9135    30.5482 opls_135      1 RES       -0.180000
    4439 C            6.3674    14.8371    31.2146 opls_157      1 RES        0.145000
    4440 O            6.4262    14.9380    32.6197 opls_154      1 RES       -0.683000
    4441 H            7.3313    15.0389    32.8720 opls_155      1 RES        0.418000
    4442 H            5.3994    14.4796    30.8636 opls_140      1 RES        0.060000
    4443 H            6.4186    15.8739    30.8823 opls_140      1 RES        0.060000
    4444 H            8.2810    14.5377    30.5283 opls_140      1 RES        0.060000
    4445 H            7.1058    13.7036    29.5164 opls_140      1 RES        0.060000
    4446 H            7.5744    12.9494    31.0213 opls_140      1 RES        0.060000
    4447 C            2.9151    21.2369    33.8026 opls_135      1 RES       -0.180000
    4448 C            3.5744    22.6024    33.6063 opls_157      1 RES        0.145000
    4449 O            3.0908    23.3932    32.5438 opls_154      1 RES       -0.683000
    4450 H            2.1464    23.3667    32.5606 opls_155      1 RES        0.418000
    4451 H            4.6385    22.3854    33.5122 opls_140      1 RES        0.060000
    4452 H            3.5004    23.2633    34.4699 opls_140      1 RES        0.060000
    4453 H            1.9998    21.5001    34.3327 opls_140      1 RES        0.060000
    4454 H            3.5126    20.6085    34.4631 opls_140      1 RES        0.060000
    4455 H            2.7135    20.6452    32.9097 opls_140      1 RES        0.060000
    4456 C            9.6424    23.1773    19.2240 opls_135      1 RES       -0.180000
    4457 C            8.1457    22.9323    19.0305 opls_157      1 RES        0.145000
    4458 O            7.3461    24.0644    18.7717 opls_154      1 RES       -0.683000
    4459 H            7.7851    24.5959    18.1252 opls_155      1 RES        0.418000
    4460 H            7.8337    22.3995    19.9288 opls_140      1 RES        0.060000
    4461 H            7.9054    22.2575    18.2089 opls_140      1 RES        0.060000
    4462 H            9.9933    23.2674    18.1960 opls_140      1 RES        0.060000
    4463 H           10.1250    22.3049    19.6646 opls_140      1 RES        0.060000
    4464 H            9.9353    24.0338    19.8313 opls_140      1 RES        0.060000
    4465 C            2.6113    27.6726    24.8523 opls_135      1 RES       -0.180000
    4466 C            2.8823    28.4518    26.1396 opls_157      1 RES        0.145000
    4467 O            3.1969    27.6931    27.2857 opls_154      1 RES       -0.683000
    4468 H            3.8249    27.0312    27.0398 opls_155      1 RES        0.418000
    4469 H            1.9960    29.0703    26.2808 opls_140      1 RES        0.060000
    4470 H            3.7077    29.1601    26.0684 opls_140      1 RES        0.060000
    4471 H            3.6199    27.4497    24.5043 opls_140      1 RES        0.060000
    4472 H            2.1352    28.3087    24.1061 opls_140      1 RES        0.060000
    4473 H            1.9991    26.7741    24.9302 opls_140      1 RES        0.060000
    4474 C           27.3652    32.0339    19.6622 opls_135      1 RES       -0.180000
    4475 C           28.6477    32.6871    19.1462 opls_157      1 RES        0.145000
    4476 O           28.5058    33.9176    18.4724 opls_154      1 RES       -0.683000
    4477 H           27.9126    34.4606    18.9686 opls_155      1 RES        0.418000
    4478 H           29.1164    31.9243    18.5245 opls_140      1 RES        0.060000
    4479 H           29.3823    32.9045    19.9215 opls_140      1 RES        0.060000
    4480 H           27.1819    32.5880    20.5828 opls_140      1 RES        0.060000
    4481 H           27.5408    30.9921    19.9307 opls_140      1 RES        0.060000
    4482 H           26.4981    32.0422    19.0017 opls_140      1 RES        0.060000
    4483 C           26.4057     7.3578    12.4765 opls_135      1 RES       -0.180000
    4484 C           27.3713     8.5433    12.4667 opls_157      1 RES        0.145000
    4485 O           27.6482     9.1458    13.7110 opls_154      1 RES       -0.683000
    4486 H           27.8091     8.4615    14.3425 opls_155      1 RES        0.418000
    4487 H           26.9417     9.2447    11.7515 opls_140      1 RES        0.060000
    4488 H           28.3599     8.3117    12.0701 opls_140      1 RES        0.060000
    4489 H           27.0513     6.5409    12.7988 opls_140      1 RES        0.060000
    4490 H           26.0600     7.1302    11.4681 opls_140      1 RES        0.060000
    4491 H           25.5146     7.4430    13.0984 opls_140      1 RES        0.060000
    4492 C           19.3810    12.1455    12.1692 opls_135      1 RES       -0.180000
    4493 C           20.0431    13.5189    12.0536 opls_157      1 RES        0.145000
    4494 O           19.5465    14.3801    11.0537 opls_154      1 RES       -0.683000
    4495 H           18.6023    14.3557    11.0836 opls_155      1 RES        0.418000
    4496 H           21.1046    13.3051    11.9285 opls_140      1 RES        0.060000
    4497 H           19.9853    14.1211    12.9603 opls_140      1 RES        0.060000
    4498 H           18.4751    12.3759    12.7299 opls_140      1 RES        0.060000
    4499 H           19.9860    11.4726    12.7769 opls_140      1 RES        0.060000
    4500 H           19.1630    11.6151    11.2422 opls_140      1 RES        0.060000
@<TRIPOS>BOND
       1        1        2 1
       2        3        2 1
       3        4        3 1
       4        5        2 1
       5        6        2 1
       6        7        1 1
       7        8        1 1
       8        9        1 1
       9       10       11 1
      10       12       11 1
      11       13       12 1
      12       14       11 1
      13       15       11 1
      14       16       10 1
      15       17       10 1
      16       18       10 1
      17       19       20 1
      18       21       20 1
      19       22       21 1
      20       23       20 1
      21       24       20 1
      22       25       19 1
      23       26       19 1
      24       27       19 1
      25       28       29 1
      26       30       29 1
      27       31       30 1
      28       32       29 1
      29       33       29 1
      30       34       28 1
      31       35       28 1
      32       36       28 1
      33       37       38 1
      34       39       38 1
      35       40       39 1
      36       41       38 1
      37       42       38 1
      38       43       37 1
      39       44       37 1
      40       45       37 1
      41       46       47 1
      42       48       47 1
      43       49       48 1
      44       50       47 1
      45       51       47 1
      46       52       46 1
      47       53       46 1
      48       54       46 1
      49       55       56 1
      50       57       56 1
      51       58       57 1
      52       59       56 1
      53       60       56 1
      54       61       55 1
      55       62       55 1
      56       63       55 1
      57       64       65 1
      58       66       65 1
      59       67       66 1
      60       68       65 1
      61       69       65 1
      62       70       64 1
      63       71       64 1
      64       72       64 1
      65       73       74 1
      66       75       74 1
      67       76       75 1
      68       77       74 1
      69       78       74 1
      70       79       73 1
      71       80       73 1
      72       81       73 1
      73       82       83 1
      74       84       83 1
      75       85       84 1
      76       86       83 1
      77       87       83 1
      78       88       82 1
      79       89       82 1
      80       90       82 1
      81       91       92 1
      82       93       92 1
      83       94       93 1
      84       95       92 1
      85       96       92 1
      86       97       91 1
      87       98       91 1
      88       99       91 1
      89      100      101 1
      90      102      101 1
      91      103      102 1
      92      104      101 1
      93      105      101 1
      94      106      100 1
      95      107      100 1
      96      108      100 1
      97      109      110 1
      98      111      110 1
      99      112      111 1
     100      113      110 1
     101      114      110 1
     102      115      109 1
     103      116      109 1
     104      117      109 1
     105      118      119 1
     106      120      119 1
     107      121      120 1
     108      122      119 1
     109      123      119 1
     110      124      118 1
     111      125      118 1
     112      126      118 1
     113      127      128 1
     114      129      128 1
     115      130      129 1
     116      131      128 1
     117      132      128 1
     118      133      127 1
     119      134      127 1
     120      135      127 1
     121      136      137 1
     122      138      137 1
     123      139      138 1
     124      140      137 1
     125      141      137 1
     126      142      136 1
     127      143      136 1
     128      144      136 1
     129      145      146 1
     130      147      146 1
     131      148      147 1
     132      149      146 1
     133      150      146 1
     134      151      145 1
     135      152      145 1
     136      153      145 1
     137      154      155 1
     138      156      155 1
     139      157      156 1
     140      158      155 1
     141      159      155 1
     142      160      154 1
     143      161      154 1
     144      162      154 1
     145      163      164 1
     146      165      164 1
     147      166      165 1
     148      167      164 1
     149      168      164 1
     150      169      163 1
     151      170      163 1
     152      171      163 1
     153      172      173 1
     154      174      173 1
     155      175      174 1
     156      176      173 1
     157      177      173 1
     158      178      172 1
     159      179      172 1
     160      180      172 1
     161      181      182 1
     162      183      182 1
     163      184      183 1
     164      185      182 1
     165      186      182 1
     166      187      181 1
     167      188      181 1
     168      189      181 1
     169      190      191 1
     170      192      191 1
     171      193      192 1
     172      194      191 1
     173      195      191 1
     174      196      190 1
     175      197      190 1
     176      198      190 1
     177      199      200 1
     178      201      200 1
     179      202      201 1
     180      203      200 1
     181      204      200 1
     182      205      199 1
     183      206      199 1
     184      207      199 1
     185      208      209 1
     186      210      209 1
     187      211      210 1
     188      212      209 1
     189      213      209 1
     190      214      208 1
     191      215      208 1
     192      216      208 1
     193      217      218 1
     194      219      218 1
     195      220      219 1
     196      221      218 1
     197      222      218 1
     198      223      217 1
     199      224      217 1
     200      225      217 1
     201      226      227 1
     202      228      227 1
     203      229      228 1
     204      230      227 1
     205      231      227 1
     206      232      226 1
     207      233      226 1
     208      234      226 1
     209      235      236 1
     210      237      236 1
     211      238      237 1
     212      239      236 1
     213      240      236 1
     214      241      235 1
     215      242      235 1
     216      243      235 1
     217      244      245 1
     218      246      245 1
     219      247      246 1
     220      248      245 1
     221      249      245 1
     222      250      244 1
     223      251      244 1
     224      252      244 1
     225      253      254 1
     226      255      254 1
     227      256      255 1
     228      257      254 1
     229      258      254 1
     230      259      253 1
     231      260      253 1
     232      261      253 1
     233      262      263 1
     234      264      263 1
     235      265      264 1
     236      266      263 1
     237      267      263 1
     238      268      262 1
     239      269      262 1
     240      270      262 1
     241      271      272 1
     242      273      272 1
     243      274      273 1
     244      275      272 1
     245      276      272 1
     246      277      271 1
     247      278      271 1
     248      279      271 1
     249      280      281 1
     250      282      281 1
     251      283      282 1
     252      284      281 1
     253      285      281 1
     254      286      280 1
     255      287      280 1
     256      288      280 1
     257      289      290 1
     258      291      290 1
     259      292      291 1
     260      293      290 1
     261      294      290 1
     262      295      289 1
     263      296      289 1
     264      297      289 1
     265      298      299 1
     266      300      299 1
     267      301      300 1
     268      302      299 1
     269      303      299 1
     270      304      298 1
     271      305      298 1
     272      306      298 1
     273      307      308 1
     274      309      308 1
     275      310      309 1
     276      311      308 1
     277      312      308 1
     278      313      307 1
     279      314      307 1
     280      315      307 1
     281      316      317 1
     282      318      317 1
     283      319      318 1
     284      320      317 1
     285      321      317 1
     286      322      316 1
     287      323      316 1
     288      324      316 1
     289      325      326 1
     290      327      326 1
     291      328      327 1
     292      329      326 1
     293      330      326 1
     294      331      325 1
     295      332      325 1
     296      333      325 1
     297      334      335 1
     298      336      335 1
     299      337      336 1
     300      338      335 1
     301      339      335 1
     302      340      334 1
     303      341      334 1
     304      342      334 1
     305      343      344 1
     306      345      344 1
     307      346      345 1
     308      347      344 1
     309      348      344 1
     310      349      343 1
     311      350      343 1
     312      351      343 1
     313      352      353 1
     314      354      353 1
     315      355      354 1
     316      356      353 1
     317      357      353 1
     318      358      352 1
     319      359      352 1
     320      360      352 1
     321      361      362 1
     322      363      362 1
     323      364      363 1
     324      365      362 1
     325      366      362 1
     326      367      361 1
     327      368      361 1
     328      369      361 1
     329      370      371 1
     330      372      371 1
     331      373      372 1
     332      374      371 1
     333      375      371 1
     334      376      370 1
     335      377      370 1
     336      378      370 1
     337      379      380 1
     338      381      380 1
     339      382      381 1
     340      383      380 1
     341      384      380 1
     342      385      379 1
     343      386      379 1
     344      387      379 1
     345      388      389 1
     346      390      389 1
     347      391      390 1
     348      392      389 1
     349      393      389 1
     350      394      388 1
     351      395      388 1
     352      396      388 1
     353      397      398 1
     354      399      398 1
     355      400      399 1
     356      401      398 1
     357      402      398 1
     358      403      397 1
     359      404      397 1
     360      405      397 1
     361      406      407 1
     362      408      407 1
     363      409      408 1
     364      410      407 1
     365      411      407 1
     366      412      406 1
     367      413      406 1
     368      414      406 1
     369      415      416 1
     370      417      416 1
     371      418      417 1
     372      419      416 1
     373      420      416 1
     374      421      415 1
     375      422      415 1
     376      423      415 1
     377      424      425 1
     378      426      425 1
     379      427      426 1
     380      428      425 1
     381      429      425 1
     382      430      424 1
     383      431      424 1
     384      432      424 1
     385      433      434 1
     386      435      434 1
     387      436      435 1
     388      437      434 1
     389      438      434 1
     390      439      433 1
     391      440      433 1
     392      441      433 1
     393      442      443 1
     394      444      443 1
     395      445      444 1
     396      446      443 1
     397      447      443 1
     398      448      442 1
     399      449      442 1
     400      450      442 1
     401      451      452 1
     402      453      452 1
     403      454      453 1
     404      455      452 1
     405      456      452 1
     406      457      451 1
     407      458      451 1
     408      459      451 1
     409      460      461 1
     410      462      461 1
     411      463      462 1
     412      464      461 1
     413      465      461 1
     414      466      460 1
     415      467      460 1
     416      468      460 1
     417      469      470 1
     418      471      470 1
     419      472      471 1
     420      473      470 1
     421      474      470 1
     422      475      469 1
     423      476      469 1
     424      477      469 1
     425      478      479 1
     426      480      479 1
     427      481      480 1
     428      482      479 1
     429      483      479 1
     430      484      478 1
     431      485      478 1
     432      486      478 1
     433      487      488 1
     434      489      488 1
     435      490      489 1
     436      491      488 1
     437      492      488 1
     438      493      487 1
     439      494      487 1
     440      495      487 1
     441      496      497 1
     442      498      497 1
     443      499      498 1
     444      500      497 1
     445      501      497 1
     446      502      496 1
     447      503      496 1
     448      504      496 1
     449      505      506 1
     450      507      506 1
     451      508      507 1
     452      509      506 1
     453      510      506 1
     454      511      505 1
     455      512      505 1
     456      513      505 1
     457      514      515 1
     458      516      515 1
     459      517      516 1
     460      518      515 1
     461      519      515 1
     462      520      514 1
     463      521      514 1
     464      522      514 1
     465      523      524 1
     466      525      524 1
     467      526      525 1
     468      527      524 1
     469      528      524 1
     470      529      523 1
     471      530      523 1
     472      531      523 1
     473      532      533 1
     474      534      533 1
     475      535      534 1
     476      536      533 1
     477      537      533 1
     478      538      532 1
     479      539      532 1
     480      540      532 1
     481      541      542 1
     482      543      542 1
     483      544      543 1
     484      545      542 1
     485      546      542 1
     486      547      541 1
     487      548      541 1
     488      549      541 1
     489      550      551 1
     490      552      551 1
     491      553      552 1
     492      554      551 1
     493      555      551 1
     494      556      550 1
     495      557      550 1
     496      558      550 1
     497      559      560 1
     498      561      560 1
     499      562      561 1
     500      563      560 1
     501      564      560 1
     502      565      559 1
     503      566      559 1
     504      567      559 1
     505      568      569 1
     506      570      569 1
     507      571      570 1
     508      572      569 1
     509      573      569 1
     510      574      568 1
     511      575      568 1
     512      576      568 1
     513      577      578 1
     514      579      578 1
     515      580      579 1
     516      581      578 1
     517      582      578 1
     518      583      577 1
     519      584      577 1
     520      585      577 1
     521      586      587 1
     522      588      587 1
     523      589      588 1
     524      590      587 1
     525      591      587 1
     526      592      586 1
     527      593      586 1
     528      594      586 1
     529      595      596 1
     530      597      596 1
     531      598      597 1
     532      599      596 1
     533      600      596 1
     534      601      595 1
     535      602      595 1
     536      603      595 1
     537      604      605 1
     538      606      605 1
     539      607      606 1
     540      608      605 1
     541      609      605 1
     542      610      604 1
     543      611      604 1
     544      612      604 1
     545      613      614 1
     546      615      614 1
     547      616      615 1
     548      617      614 1
     549      618      614 1
     550      619      613 1
     551      620      613 1
     552      621      613 1
     553      622      623 1
     554      624      623 1
     555      625      624 1
     556      626      623 1
     557      627      623 1
     558      628      622 1
     559      629      622 1
     560      630      622 1
     561      631      632 1
     562      633      632 1
     563      634      633 1
     564      635      632 1
     565      636      632 1
     566      637      631 1
     567      638      631 1
     568      639      631 1
     569      640      641 1
     570      642      641 1
     571      643      642 1
     572      644      641 1
     573      645      641 1
     574      646      640 1
     575      647      640 1
     576      648      640 1
     577      649      650 1
     578      651      650 1
     579      652      651 1
     580      653      650 1
     581      654      650 1
     582      655      649 1
     583      656      649 1
     584      657      649 1
     585      658      659 1
     586      660      659 1
     587      661      660 1
     588      662      659 1
     589      663      659 1
     590      664      658 1
     591      665      658 1
     592      666      658 1
     593      667      668 1
     594      669      668 1
     595      670      669 1
     596      671      668 1
     597      672      668 1
     598      673      667 1
     599      674      667 1
     600      675      667 1
     601      676      677 1
     602      678      677 1
     603      679      678 1
     604      680      677 1
     605      681      677 1
     606      682      676 1
     607      683      676 1
     608      684      676 1
     609      685      686 1
     610      687      686 1
     611      688      687 1
     612      689      686 1
     613      690      686 1
     614      691      685 1
     615      692      685 1
     616      693      685 1
     617      694      695 1
     618      696      695 1
     619      697      696 1
     620      698      695 1
     621      699      695 1
     622      700      694 1
     623      701      694 1
     624      702      694 1
     625      703      704 1
     626      705      704 1
     627      706      705 1
     628      707      704 1
     629      708      704 1
     630      709      703 1
     631      710      703 1
     632      711      703 1
     633      712      713 1
     634      714      713 1
     635      715      714 1
     636      716      713 1
     637      717      713 1
     638      718      712 1
     639      719      712 1
     640      720      712 1
     641      721      722 1
     642      723      722 1
     643      724      723 1
     644      725      722 1
     645      726      722 1
     646      727      721 1
     647      728      721 1
     648      729      721 1
     649      730      731 1
     650      732      731 1
     651      733      732 1
     652      734      731 1
     653      735      731 1
     654      736      730 1
     655      737      730 1
     656      738      730 1
     657      739      740 1
     658      741      740 1
     659      742      741 1
     660      743      740 1
     661      744      740 1
     662      745      739 1
     663      746      739 1
     664      747      739 1
     665      748      749 1
     666      750      749 1
     667      751      750 1
     668      752      749 1
     669      753      749 1
     670      754      748 1
     671      755      748 1
     672      756      748 1
     673      757      758 1
     674      759      758 1
     675      760      759 1
     676      761      758 1
     677      762      758 1
     678      763      757 1
     679      764      757 1
     680      765      757 1
     681      766      767 1
     682      768      767 1
     683      769      768 1
     684      770      767 1
     685      771      767 1
     686      772      766 1
     687      773      766 1
     688      774      766 1
     689      775      776 1
     690      777      776 1
     691      778      777 1
     692      779      776 1
     693      780      776 1
     694      781      775 1
     695      782      775 1
     696      783      775 1
     697      784      785 1
     698      786      785 1
     699      787      786 1
     700      788      785 1
     701      789      785 1
     702      790      784 1
     703      791      784 1
     704      792      784 1
     705      793      794 1
     706      795      794 1
     707      796      795 1
     708      797      794 1
     709      798      794 1
     710      799      793 1
     711      800      793 1
     712      801      793 1
     713      802      803 1
     714      804      803 1
     715      805      804 1
     716      806      803 1
     717      807      803 1
     718      808      802 1
     719      809      802 1
     720      810      802 1
     721      811      812 1
     722      813      812 1
     723      814      813 1
     724      815      812 1
     725      816      812 1
     726      817      811 1
     727      818      811 1
     728      819      811 1
     729      820      821 1
     730      822      821 1
     731      823      822 1
     732      824      821 1
     733      825      821 1
     734      826      820 1
     735      827      820 1
     736      828      820 1
     737      829      830 1
     738      831      830 1
     739      832      831 1
     740      833      830 1
     741      834      830 1
     742      835      829 1
     743      836      829 1
     744      837      829 1
     745      838      839 1
     746      840      839 1
     747      841      840 1
     748      842      839 1
     749      843      839 1
     750      844      838 1
     751      845      838 1
     752      846      838 1
     753      847      848 1
     754      849      848 1
     755      850      849 1
     756      851      848 1
     757      852      848 1
     758      853      847 1
     759      854      847 1
     760      855      847 1
     761      856      857 1
     762      858      857 1
     763      859      858 1
     764      860      857 1
     765      861      857 1
     766      862      856 1
     767      863      856 1
     768      864      856 1
     769      865      866 1
     770      867      866 1
     771      868      867 1
     772      869      866 1
     773      870      866 1
     774      871      865 1
     775      872      865 1
     776      873      865 1
     777      874      875 1
     778      876      875 1
     779      877      876 1
     780      878      875 1
     781      879      875 1
     782      880      874 1
     783      881      874 1
     784      882      874 1
     785      883      884 1
     786      885      884 1
     787      886      885 1
     788      887      884 1
     789      888      884 1
     790      889      883 1
     791      890      883 1
     792      891      883 1
     793      892      893 1
     794      894      893 1
     795      895      894 1
     796      896      893 1
     797      897      893 1
     798      898      892 1
     799      899      892 1
     800      900      892 1
     801      901      902 1
     802      903      902 1
     803      904      903 1
     804      905      902 1
     805      906      902 1
     806      907      901 1
     807      908      901 1
     808      909      901 1
     809      910      911 1
     810      912      911 1
     811      913      912 1
     812      914      911 1
     813      915      911 1
     814      916      910 1
     815      917      910 1
     816      918      910 1
     817      919      920 1
     818      921      920 1
     819      922      921 1
     820      923      920 1
     821      924      920 1
     822      925      919 1
     823      926      919 1
     824      927      919 1
     825      928      929 1
     826      930      929 1
     827      931      930 1
     828      932      929 1
     829      933      929 1
     830      934      928 1
     831      935      928 1
     832      936      928 1
     833      937      938 1
     834      939      938 1
     835      940      939 1
     836      941      938 1
     837      942      938 1
     838      943      937 1
     839      944      937 1
     840      945      937 1
     841      946      947 1
     842      948      947 1
     843      949      948 1
     844      950      947 1
     845      951      947 1
     846      952      946 1
     847      953      946 1
     848      954      946 1
     849      955      956 1
     850      957      956 1
     851      958      957 1
     852      959      956 1
     853      960      956 1
     854      961      955 1
     855      962      955 1
     856      963      955 1
     857      964      965 1
     858      966      965 1
     859      967      966 1
     860      968      965 1
     861      969      965 1
     862      970      964 1
     863      971      964 1
     864      972      964 1
     865      973      974 1
     866      975      974 1
     867      976      975 1
     868      977      974 1
     869      978      974 1
     870      979      973 1
     871      980      973 1
     872      981      973 1
     873      982      983 1
     874      984      983 1
     875      985      984 1
     876      986      983 1
     877      987      983 1
     878      988      982 1
     879      989      982 1
     880      990      982 1
     881      991      992 1
     882      993      992 1
     883      994      993 1
     884      995      992 1
     885      996      992 1
     886      997      991 1
     887      998      991 1
     888      999      991 1
     889     1000     1001 1
     890     1002     1001 1
     891     1003     1002 1
     892     1004     1001 1
     893     1005     1001 1
     894     1006     1000 1
     895     1007     1000 1
     896     1008     1000 1
     897     1009     1010 1
     898     1011     1010 1
     899     1012     1011 1
     900     1013     1010 1
     901     1014     1010 1
     902     1015     1009 1
     903     1016     1009 1
     904     1017     1009 1
     905     1018     1019 1
     906     1020     1019 1
     907     1021     1020 1
     908     1022     1019 1
     909     1023     1019 1
     910     1024     1018 1
     911     1025     1018 1
     912     1026     1018 1
     913     1027     1028 1
     914     1029     1028 1
     915     1030     1029 1
     916     1031     1028 1
     917     1032     1028 1
     918     1033     1027 1
     919     1034     1027 1
     920     1035     1027 1
     921     1036     1037 1
     922     1038     1037 1
     923     1039     1038 1
     924     1040     1037 1
     925     1041     1037 1
     926     1042     1036 1
     927     1043     1036 1
     928     1044     1036 1
     929     1045     1046 1
     930     1047     1046 1
     931     1048     1047 1
     932     1049     1046 1
     933     1050     1046 1
     934     1051     1045 1
     935     1052     1045 1
     936     1053     1045 1
     937     1054     1055 1
     938     1056     1055 1
     939     1057     1056 1
     940     1058     1055 1
     941     1059     1055 1
     942     1060     1054 1
     943     1061     1054 1
     944     1062     1054 1
     945     1063     1064 1
     946     1065     1064 1
     947     1066     1065 1
     948     1067     1064 1
     949     1068     1064 1
     950     1069     1063 1
     951     1070     1063 1
     952     1071     1063 1
     953     1072     1073 1
     954     1074     1073 1
     955     1075     1074 1
     956     1076     1073 1
     957     1077     1073 1
     958     1078     1072 1
     959     1079     1072 1
     960     1080     1072 1
     961     1081     1082 1
     962     1083     1082 1
     963     1084     1083 1
     964     1085     1082 1
     965     1086     1082 1
     966     1087     1081 1
     967     1088     1081 1
     968     1089     1081 1
     969     1090     1091 1
     970     1092     1091 1
     971     1093     1092 1
     972     1094     1091 1
     973     1095     1091 1
     974     1096     1090 1
     975     1097     1090 1
     976     1098     1090 1
     977     1099     1100 1
     978     1101     1100 1
     979     1102     1101 1
     980     1103     1100 1
     981     1104     1100 1
     982     1105     1099 1
     983     1106     1099 1
     984     1107     1099 1
     985     1108     1109 1
     986     1110     1109 1
     987     1111     1110 1
     988     1112     1109 1
     989     1113     1109 1
     990     1114     1108 1
     991     1115     1108 1
     992     1116     1108 1
     993     1117     1118 1
     994     1119     1118 1
     995     1120     1119 1
     996     1121     1118 1
     997     1122     1118 1
     998     1123     1117 1
     999     1124     1117 1
    1000     1125     1117 1
    1001     1126     1127 1
    1002     1128     1127 1
    1003     1129     1128 1
    1004     1130     1127 1
    1005     1131     1127 1
    1006     1132     1126 1
    1007     1133     1126 1
    1008     1134     1126 1
    1009     1135     1136 1
    1010     1137     1136 1
    1011     1138     1137 1
    1012     1139     1136 1
    1013     1140     1136 1
    1014     1141     1135 1
    1015     1142     1135 1
    1016     1143     1135 1
    1017     1144     1145 1
    1018     1146     1145 1
    1019     1147     1146 1
    1020     1148     1145 1
    1021     1149     1145 1
    1022     1150     1144 1
    1023     1151     1144 1
    1024     1152     1144 1
    1025     1153     1154 1
    1026     1155     1154 1
    1027     1156     1155 1
    1028     1157     1154 1
    1029     1158     1154 1
    1030     1159     1153 1
    1031     1160     1153 1
    1032     1161     1153 1
    1033     1162     1163 1
    1034     1164     1163 1
    1035     1165     1164 1
    1036     1166     1163 1
    1037     1167     1163 1
    1038     1168     1162 1
    1039     1169     1162 1
    1040     1170     1162 1
    1041     1171     1172 1
    1042     1173     1172 1
    1043     1174     1173 1
    1044     1175     1172 1
    1045     1176     1172 1
    1046     1177     1171 1
    1047     1178     1171 1
    1048     1179     1171 1
    1049     1180     1181 1
    1050     1182     1181 1
    1051     1183     1182 1
    1052     1184     1181 1
    1053     1185     1181 1
    1054     1186     1180 1
    1055     1187     1180 1
    1056     1188     1180 1
    1057     1189     1190 1
    1058     1191     1190 1
    1059     1192     1191 1
    1060     1193     1190 1
    1061     1194     1190 1
    1062     1195     1189 1
    1063     1196     1189 1
    1064     1197     1189 1
    1065     1198     1199 1
    1066     1200     1199 1
    1067     1201     1200 1
    1068     1202     1199 1
    1069     1203     1199 1
    1070     1204     1198 1
    1071     1205     1198 1
    1072     1206     1198 1
    1073     1207     1208 1
    1074     1209     1208 1
    1075     1210     1209 1
    1076     1211     1208 1
    1077     1212     1208 1
    1078     1213     1207 1
    1079     1214     1207 1
    1080     1215     1207 1
    1081     1216     1217 1
    1082     1218     1217 1
    1083     1219     1218 1
    1084     1220     1217 1
    1085     1221     1217 1
    1086     1222     1216 1
    1087     1223     1216 1
    1088     1224     1216 1
    1089     1225     1226 1
    1090     1227     1226 1
    1091     1228     1227 1
    1092     1229     1226 1
    1093     1230     1226 1
    1094     1231     1225 1
    1095     1232     1225 1
    1096     1233     1225 1
    1097     1234     1235 1
    1098     1236     1235 1
    1099     1237     1236 1
    1100     1238     1235 1
    1101     1239     1235 1
    1102     1240     1234 1
    1103     1241     1234 1
    1104     1242     1234 1
    1105     1243     1244 1
    1106     1245     1244 1
    1107     1246     1245 1
    1108     1247     1244 1
    1109     1248     1244 1
    1110     1249     1243 1
    1111     1250     1243 1
    1112     1251     1243 1
    1113     1252     1253 1
    1114     1254     1253 1
    1115     1255     1254 1
    1116     1256     1253 1
    1117     1257     1253 1
    1118     1258     1252 1
    1119     1259     1252 1
    1120     1260     1252 1
    1121     1261     1262 1
    1122     1263     1262 1
    1123     1264     1263 1
    1124     1265     1262 1
    1125     1266     1262 1
    1126     1267     1261 1
    1127     1268     1261 1
    1128     1269     1261 1
    1129     1270     1271 1
    1130     1272     1271 1
    1131     1273     1272 1
    1132     1274     1271 1
    1133     1275     1271 1
    1134     1276     1270 1
    1135     1277     1270 1
    1136     1278     1270 1
    1137     1279     1280 1
    1138     1281     1280 1
    1139     1282     1281 1
    1140     1283     1280 1
    1141     1284     1280 1
    1142     1285     1279 1
    1143     1286     1279 1
    1144     1287     1279 1
    1145     1288     1289 1
    1146     1290     1289 1
    1147     1291     1290 1
    1148     1292     1289 1
    1149     1293     1289 1
    1150     1294     1288 1
    1151     1295     1288 1
    1152     1296     1288 1
    1153     1297     1298 1
    1154     1299     1298 1
    1155     1300     1299 1
    1156     1301     1298 1
    1157     1302     1298 1
    1158     1303     1297 1
    1159     1304     1297 1
    1160     1305     1297 1
    1161     1306     1307 1
    1162     1308     1307 1
    1163     1309     1308 1
    1164     1310     1307 1
    1165     1311     1307 1
    1166     1312     1306 1
    1167     1313     1306 1
    1168     1314     1306 1
    1169     1315     1316 1
    1170     1317     1316 1
    1171     1318     1317 1
    1172     1319     1316 1
    1173     1320     1316 1
    1174     1321     1315 1
    1175     1322     1315 1
    1176     1323     1315 1
    1177     1324     1325 1
    1178     1326     1325 1
    1179     1327     1326 1
    1180     1328     1325 1
    1181     1329     1325 1
    1182     1330     1324 1
    1183     1331     1324 1
    1184     1332     1324 1
    1185     1333     1334 1
    1186     1335     1334 1
    1187     1336     1335 1
    1188     1337     1334 1
    1189     1338     1334 1
    1190     1339     1333 1
    1191     1340     1333 1
    1192     1341     1333 1
    1193     1342     1343 1
    1194     1344     1343 1
    1195     1345     1344 1
    1196     1346     1343 1
    1197     1347     1343 1
    1198     1348     1342 1
    1199     1349     1342 1
    1200     1350     1342 1
    1201     1351     1352 1
    1202     1353     1352 1
    1203     1354     1353 1
    1204     1355     1352 1
    1205     1356     1352 1
    1206     1357     1351 1
    1207     1358     1351 1
    1208     1359     1351 1
    1209     1360     1361 1
    1210     1362     1361 1
    1211     1363     1362 1
    1212     1364     1361 1
    1213     1365     1361 1
    1214     1366     1360 1
    1215     1367     1360 1
    1216     1368     1360 1
    1217     1369     1370 1
    1218     1371     1370 1
    1219     1372     1371 1
    1220     1373     1370 1
    1221     1374     1370 1
    1222     1375     1369 1
    1223     1376     1369 1
    1224     1377     1369 1
    1225     1378     1379 1
    1226     1380     1379 1
    1227     1381     1380 1
    1228     1382     1379 1
    1229     1383     1379 1
    1230     1384     1378 1
    1231     1385     1378 1
    1232     1386     1378 1
    1233     1387     1388 1
    1234     1389     1388 1
    1235     1390     1389 1
    1236     1391     1388 1
    1237     1392     1388 1
    1238     1393     1387 1
    1239     1394     1387 1
    1240     1395     1387 1
    1241     1396     1397 1
    1242     1398     1397 1
    1243     1399     1398 1
    1244     1400     1397 1
    1245     1401     1397 1
    1246     1402     1396 1
    1247     1403     1396 1
    1248     1404     1396 1
    1249     1405     1406 1
    1250     1407     1406 1
    1251     1408     1407 1
    1252     1409     1406 1
    1253     1410     1406 1
    1254     1411     1405 1
    1255     1412     1405 1
    1256     1413     1405 1
    1257     1414     1415 1
    1258     1416     1415 1
    1259     1417     1416 1
    1260     1418     1415 1
    1261     1419     1415 1
    1262     1420     1414 1
    1263     1421     1414 1
    1264     1422     1414 1
    1265     1423     1424 1
    1266     1425     1424 1
    1267     1426     1425 1
    1268     1427     1424 1
    1269     1428     1424 1
    1270     1429     1423 1
    1271     1430     1423 1
    1272     1431     1423 1
    1273     1432     1433 1
    1274     1434     1433 1
    1275     1435     1434 1
    1276     1436     1433 1
    1277     1437     1433 1
    1278     1438     1432 1
    1279     1439     1432 1
    1280     1440     1432 1
    1281     1441     1442 1
    1282     1443     1442 1
    1283     1444     1443 1
    1284     1445     1442 1
    1285     1446     1442 1
    1286     1447     1441 1
    1287     1448     1441 1
    1288     1449     1441 1
    1289     1450     1451 1
    1290     1452     1451 1
    1291     1453     1452 1
    1292     1454     1451 1
    1293     1455     1451 1
    1294     1456     1450 1
    1295     1457     1450 1
    1296     1458     1450 1
    1297     1459     1460 1
    1298     1461     1460 1
    1299     1462     1461 1
    1300     1463     1460 1
    1301     1464     1460 1
    1302     1465     1459 1
    1303     1466     1459 1
    1304     1467     1459 1
    1305     1468     1469 1
    1306     1470     1469 1
    1307     1471     1470 1
    1308     1472     1469 1
    1309     1473     1469 1
    1310     1474     1468 1
    1311     1475     1468 1
    1312     1476     1468 1
    1313     1477     1478 1
    1314     1479     1478 1
    1315     1480     1479 1
    1316     1481     1478 1
    1317     1482     1478 1
    1318     1483     1477 1
    1319     1484     1477 1
    1320     1485     1477 1
    1321     1486     1487 1
    1322     1488     1487 1
    1323     1489     1488 1
    1324     1490     1487 1
    1325     1491     1487 1
    1326     1492     1486 1
    1327     1493     1486 1
    1328     1494     1486 1
    1329     1495     1496 1
    1330     1497     1496 1
    1331     1498     1497 1
    1332     1499     1496 1
    1333     1500     1496 1
    1334     1501     1495 1
    1335     1502     1495 1
    1336     1503     1495 1
    1337     1504     1505 1
    1338     1506     1505 1
    1339     1507     1506 1
    1340     1508     1505 1
    1341     1509     1505 1
    1342     1510     1504 1
    1343     1511     1504 1
    1344     1512     1504 1
    1345     1513     1514 1
    1346     1515     1514 1
    1347     1516     1515 1
    1348     1517     1514 1
    1349     1518     1514 1
    1350     1519     1513 1
    1351     1520     1513 1
    1352     1521     1513 1
    1353     1522     1523 1
    1354     1524     1523 1
    1355     1525     1524 1
    1356     1526     1523 1
    1357     1527     1523 1
    1358     1528     1522 1
    1359     1529     1522 1
    1360     1530     1522 1
    1361     1531     1532 1
    1362     1533     1532 1
    1363     1534     1533 1
    1364     1535     1532 1
    1365     1536     1532 1
    1366     1537     1531 1
    1367     1538     1531 1
    1368     1539     1531 1
    1369     1540     1541 1
    1370     1542     1541 1
    1371     1543     1542 1
    1372     1544     1541 1
    1373     1545     1541 1
    1374     1546     1540 1
    1375     1547     1540 1
    1376     1548     1540 1
    1377     1549     1550 1
    1378     1551     1550 1
    1379     1552     1551 1
    1380     1553     1550 1
    1381     1554     1550 1
    1382     1555     1549 1
    1383     1556     1549 1
    1384     1557     1549 1
    1385     1558     1559 1
    1386     1560     1559 1
    1387     1561     1560 1
    1388     1562     1559 1
    1389     1563     1559 1
    1390     1564     1558 1
    1391     1565     1558 1
    1392     1566     1558 1
    1393     1567     1568 1
    1394     1569     1568 1
    1395     1570     1569 1
    1396     1571     1568 1
    1397     1572     1568 1
    1398     1573     1567 1
    1399     1574     1567 1
    1400     1575     1567 1
    1401     1576     1577 1
    1402     1578     1577 1
    1403     1579     1578 1
    1404     1580     1577 1
    1405     1581     1577 1
    1406     1582     1576 1
    1407     1583     1576 1
    1408     1584     1576 1
    1409     1585     1586 1
    1410     1587     1586 1
    1411     1588     1587 1
    1412     1589     1586 1
    1413     1590     1586 1
    1414     1591     1585 1
    1415     1592     1585 1
    1416     1593     1585 1
    1417     1594     1595 1
    1418     1596     1595 1
    1419     1597     1596 1
    1420     1598     1595 1
    1421     1599     1595 1
    1422     1600     1594 1
    1423     1601     1594 1
    1424     1602     1594 1
    1425     1603     1604 1
    1426     1605     1604 1
    1427     1606     1605 1
    1428     1607     1604 1
    1429     1608     1604 1
    1430     1609     1603 1
    1431     1610     1603 1
    1432     1611     1603 1
    1433     1612     1613 1
    1434     1614     1613 1
    1435     1615     1614 1
    1436     1616     1613 1
    1437     1617     1613 1
    1438     1618     1612 1
    1439     1619     1612 1
    1440     1620     1612 1
    1441     1621     1622 1
    1442     1623     1622 1
    1443     1624     1623 1
    1444     1625     1622 1
    1445     1626     1622 1
    1446     1627     1621 1
    1447     1628     1621 1
    1448     1629     1621 1
    1449     1630     1631 1
    1450     1632     1631 1
    1451     1633     1632 1
    1452     1634     1631 1
    1453     1635     1631 1
    1454     1636     1630 1
    1455     1637     1630 1
    1456     1638     1630 1
    1457     1639     1640 1
    1458     1641     1640 1
    1459     1642     1641 1
    1460     1643     1640 1
    1461     1644     1640 1
    1462     1645     1639 1
    1463     1646     1639 1
    1464     1647     1639 1
    1465     1648     1649 1
    1466     1650     1649 1
    1467     1651     1650 1
    1468     1652     1649 1
    1469     1653     1649 1
    1470     1654     1648 1
    1471     1655     1648 1
    1472     1656     1648 1
    1473     1657     1658 1
    1474     1659     1658 1
    1475     1660     1659 1
    1476     1661     1658 1
    1477     1662     1658 1
    1478     1663     1657 1
    1479     1664     1657 1
    1480     1665     1657 1
    1481     1666     1667 1
    1482     1668     1667 1
    1483     1669     1668 1
    1484     1670     1667 1
    1485     1671     1667 1
    1486     1672     1666 1
    1487     1673     1666 1
    1488     1674     1666 1
    1489     1675     1676 1
    1490     1677     1676 1
    1491     1678     1677 1
    1492     1679     1676 1
    1493     1680     1676 1
    1494     1681     1675 1
    1495     1682     1675 1
    1496     1683     1675 1
    1497     1684     1685 1
    1498     1686     1685 1
    1499     1687     1686 1
    1500     1688     1685 1
    1501     1689     1685 1
    1502     1690     1684 1
    1503     1691     1684 1
    1504     1692     1684 1
    1505     1693     1694 1
    1506     1695     1694 1
    1507     1696     1695 1
    1508     1697     1694 1
    1509     1698     1694 1
    1510     1699     1693 1
    1511     1700     1693 1
    1512     1701     1693 1
    1513     1702     1703 1
    1514     1704     1703 1
    1515     1705     1704 1
    1516     1706     1703 1
    1517     1707     1703 1
    1518     1708     1702 1
    1519     1709     1702 1
    1520     1710     1702 1
    1521     1711     1712 1
    1522     1713     1712 1
    1523     1714     1713 1
    1524     1715     1712 1
    1525     1716     1712 1
    1526     1717     1711 1
    1527     1718     1711 1
    1528     1719     1711 1
    1529     1720     1721 1
    1530     1722     1721 1
    1531     1723     1722 1
    1532     1724     1721 1
    1533     1725     1721 1
    1534     1726     1720 1
    1535     1727     1720 1
    1536     1728     1720 1
    1537     1729     1730 1
    1538     1731     1730 1
    1539     1732     1731 1
    1540     1733     1730 1
    1541     1734     1730 1
    1542     1735     1729 1
    1543     1736     1729 1
    1544     1737     1729 1
    1545     1738     1739 1
    1546     1740     1739 1
    1547     1741     1740 1
    1548     1742     1739 1
    1549     1743     1739 1
    1550     1744     1738 1
    1551     1745     1738 1
    1552     1746     1738 1
    1553     1747     1748 1
    1554     1749     1748 1
    1555     1750     1749 1
    1556     1751     1748 1
    1557     1752     1748 1
    1558     1753     1747 1
    1559     1754     1747 1
    1560     1755     1747 1
    1561     1756     1757 1
    1562     1758     1757 1
    1563     1759     1758 1
    1564     1760     1757 1
    1565     1761     1757 1
    1566     1762     1756 1
    1567     1763     1756 1
    1568     1764     1756 1
    1569     1765     1766 1
    1570     1767     1766 1
    1571     1768     1767 1
    1572     1769     1766 1
    1573     1770     1766 1
    1574     1771     1765 1
    1575     1772     1765 1
    1576     1773     1765 1
    1577     1774     1775 1
    1578     1776     1775 1
    1579     1777     1776 1
    1580     1778     1775 1
    1581     1779     1775 1
    1582     1780     1774 1
    1583     1781     1774 1
    1584     1782     1774 1
    1585     1783     1784 1
    1586     1785     1784 1
    1587     1786     1785 1
    1588     1787     1784 1
    1589     1788     1784 1
    1590     1789     1783 1
    1591     1790     1783 1
    1592     1791     1783 1
    1593     1792     1793 1
    1594     1794     1793 1
    1595     1795     1794 1
    1596     1796     1793 1
    1597     1797     1793 1
    1598     1798     1792 1
    1599     1799     1792 1
    1600     1800     1792 1
    1601     1801     1802 1
    1602     1803     1802 1
    1603     1804     1803 1
    1604     1805     1802 1
    1605     1806     1802 1
    1606     1807     1801 1
    1607     1808     1801 1
    1608     1809     1801 1
    1609     1810     1811 1
    1610     1812     1811 1
    1611     1813     1812 1
    1612     1814     1811 1
    1613     1815     1811 1
    1614     1816     1810 1
    1615     1817     1810 1
    1616     1818     1810 1
    1617     1819     1820 1
    1618     1821     1820 1
    1619     1822     1821 1
    1620     1823     1820 1
    1621     1824     1820 1
    1622     1825     1819 1
    1623     1826     1819 1
    1624     1827     1819 1
    1625     1828     1829 1
    1626     1830     1829 1
    1627     1831     1830 1
    1628     1832     1829 1
    1629     1833     1829 1
    1630     1834     1828 1
    1631     1835     1828 1
    1632     1836     1828 1
    1633     1837     1838 1
    1634     1839     1838 1
    1635     1840     1839 1
    1636     1841     1838 1
    1637     1842     1838 1
    1638     1843     1837 1
    1639     1844     1837 1
    1640     1845     1837 1
    1641     1846     1847 1
    1642     1848     1847 1
    1643     1849     1848 1
    1644     1850     1847 1
    1645     1851     1847 1
    1646     1852     1846 1
    1647     1853     1846 1
    1648     1854     1846 1
    1649     1855     1856 1
    1650     1857     1856 1
    1651     1858     1857 1
    1652     1859     1856 1
    1653     1860     1856 1
    1654     1861     1855 1
    1655     1862     1855 1
    1656     1863     1855 1
    1657     1864     1865 1
    1658     1866     1865 1
    1659     1867     1866 1
    1660     1868     1865 1
    1661     1869     1865 1
    1662     1870     1864 1
    1663     1871     1864 1
    1664     1872     1864 1
    1665     1873     1874 1
    1666     1875     1874 1
    1667     1876     1875 1
    1668     1877     1874 1
    1669     1878     1874 1
    1670     1879     1873 1
    1671     1880     1873 1
    1672     1881     1873 1
    1673     1882     1883 1
    1674     1884     1883 1
    1675     1885     1884 1
    1676     1886     1883 1
    1677     1887     1883 1
    1678     1888     1882 1
    1679     1889     1882 1
    1680     1890     1882 1
    1681     1891     1892 1
    1682     1893     1892 1
    1683     1894     1893 1
    1684     1895     1892 1
    1685     1896     1892 1
    1686     1897     1891 1
    1687     1898     1891 1
    1688     1899     1891 1
    1689     1900     1901 1
    1690     1902     1901 1
    1691     1903     1902 1
    1692     1904     1901 1
    1693     1905     1901 1
    1694     1906     1900 1
    1695     1907     1900 1
    1696     1908     1900 1
    1697     1909     1910 1
    1698     1911     1910 1
    1699     1912     1911 1
    1700     1913     1910 1
    1701     1914     1910 1
    1702     1915     1909 1
    1703     1916     1909 1
    1704     1917     1909 1
    1705     1918     1919 1
    1706     1920     1919 1
    1707     1921     1920 1
    1708     1922     1919 1
    1709     1923     1919 1
    1710     1924     1918 1
    1711     1925     1918 1
    1712     1926     1918 1
    1713     1927     1928 1
    1714     1929     1928 1
    1715     1930     1929 1
    1716     1931     1928 1
    1717     1932     1928 1
    1718     1933     1927 1
    1719     1934     1927 1
    1720     1935     1927 1
    1721     1936     1937 1
    1722     1938     1937 1
    1723     1939     1938 1
    1724     1940     1937 1
    1725     1941     1937 1
    1726     1942     1936 1
    1727     1943     1936 1
    1728     1944     1936 1
    1729     1945     1946 1
    1730     1947     1946 1
    1731     1948     1947 1
    1732     1949     1946 1
    1733     1950     1946 1
    1734     1951     1945 1
    1735     1952     1945 1
    1736     1953     1945 1
    1737     1954     1955 1
    1738     1956     1955 1
    1739     1957     1956 1
    1740     1958     1955 1
    1741     1959     1955 1
    1742     1960     1954 1
    1743     1961     1954 1
    1744     1962     1954 1
    1745     1963     1964 1
    1746     1965     1964 1
    1747     1966     1965 1
    1748     1967     1964 1
    1749     1968     1964 1
    1750     1969     1963 1
    1751     1970     1963 1
    1752     1971     1963 1
    1753     1972     1973 1
    1754     1974     1973 1
    1755     1975     1974 1
    1756     1976     1973 1
    1757     1977     1973 1
    1758     1978     1972 1
    1759     1979     1972 1
    1760     1980     1972 1
    1761     1981     1982 1
    1762     1983     1982 1
    1763     1984     1983 1
    1764     1985     1982 1
    1765     1986     1982 1
    1766     1987     1981 1
    1767     1988     1981 1
    1768     1989     1981 1
    1769     1990     1991 1
    1770     1992     1991 1
    1771     1993     1992 1
    1772     1994     1991 1
    1773     1995     1991 1
    1774     1996     1990 1
    1775     1997     1990 1
    1776     1998     1990 1
    1777     1999     2000 1
    1778     2001     2000 1
    1779     2002     2001 1
    1780     2003     2000 1
    1781     2004     2000 1
    1782     2005     1999 1
    1783     2006     1999 1
    1784     2007     1999 1
    1785     2008     2009 1
    1786     2010     2009 1
    1787     2011     2010 1
    1788     2012     2009 1
    1789     2013     2009 1
    1790     2014     2008 1
    1791     2015     2008 1
    1792     2016     2008 1
    1793     2017     2018 1
    1794     2019     2018 1
    1795     2020     2019 1
    1796     2021     2018 1
    1797     2022     2018 1
    1798     2023     2017 1
    1799     2024     2017 1
    1800     2025     2017 1
    1801     2026     2027 1
    1802     2028     2027 1
    1803     2029     2028 1
    1804     2030     2027 1
    1805     2031     2027 1
    1806     2032     2026 1
    1807     2033     2026 1
    1808     2034     2026 1
    1809     2035     2036 1
    1810     2037     2036 1
    1811     2038     2037 1
    1812     2039     2036 1
    1813     2040     2036 1
    1814     2041     2035 1
    1815     2042     2035 1
    1816     2043     2035 1
    1817     2044     2045 1
    1818     2046     2045 1
    1819     2047     2046 1
    1820     2048     2045 1
    1821     2049     2045 1
    1822     2050     2044 1
    1823     2051     2044 1
    1824     2052     2044 1
    1825     2053     2054 1
    1826     2055     2054 1
    1827     2056     2055 1
    1828     2057     2054 1
    1829     2058     2054 1
    1830     2059     2053 1
    1831     2060     2053 1
    1832     2061     2053 1
    1833     2062     2063 1
    1834     2064     2063 1
    1835     2065     2064 1
    1836     2066     2063 1
    1837     2067     2063 1
    1838     2068     2062 1
    1839     2069     2062 1
    1840     2070     2062 1
    1841     2071     2072 1
    1842     2073     2072 1
    1843     2074     2073 1
    1844     2075     2072 1
    1845     2076     2072 1
    1846     2077     2071 1
    1847     2078     2071 1
    1848     2079     2071 1
    1849     2080     2081 1
    1850     2082     2081 1
    1851     2083     2082 1
    1852     2084     2081 1
    1853     2085     2081 1
    1854     2086     2080 1
    1855     2087     2080 1
    1856     2088     2080 1
    1857     2089     2090 1
    1858     2091     2090 1
    1859     2092     2091 1
    1860     2093     2090 1
    1861     2094     2090 1
    1862     2095     2089 1
    1863     2096     2089 1
    1864     2097     2089 1
    1865     2098     2099 1
    1866     2100     2099 1
    1867     2101     2100 1
    1868     2102     2099 1
    1869     2103     2099 1
    1870     2104     2098 1
    1871     2105     2098 1
    1872     2106     2098 1
    1873     2107     2108 1
    1874     2109     2108 1
    1875     2110     2109 1
    1876     2111     2108 1
    1877     2112     2108 1
    1878     2113     2107 1
    1879     2114     2107 1
    1880     2115     2107 1
    1881     2116     2117 1
    1882     2118     2117 1
    1883     2119     2118 1
    1884     2120     2117 1
    1885     2121     2117 1
    1886     2122     2116 1
    1887     2123     2116 1
    1888     2124     2116 1
    1889     2125     2126 1
    1890     2127     2126 1
    1891     2128     2127 1
    1892     2129     2126 1
    1893     2130     2126 1
    1894     2131     2125 1
    1895     2132     2125 1
    1896     2133     2125 1
    1897     2134     2135 1
    1898     2136     2135 1
    1899     2137     2136 1
    1900     2138     2135 1
    1901     2139     2135 1
    1902     2140     2134 1
    1903     2141     2134 1
    1904     2142     2134 1
    1905     2143     2144 1
    1906     2145     2144 1
    1907     2146     2145 1
    1908     2147     2144 1
    1909     2148     2144 1
    1910     2149     2143 1
    1911     2150     2143 1
    1912     2151     2143 1
    1913     2152     2153 1
    1914     2154     2153 1
    1915     2155     2154 1
    1916     2156     2153 1
    1917     2157     2153 1
    1918     2158     2152 1
    1919     2159     2152 1
    1920     2160     2152 1
    1921     2161     2162 1
    1922     2163     2162 1
    1923     2164     2163 1
    1924     2165     2162 1
    1925     2166     2162 1
    1926     2167     2161 1
    1927     2168     2161 1
    1928     2169     2161 1
    1929     2170     2171 1
    1930     2172     2171 1
    1931     2173     2172 1
    1932     2174     2171 1
    1933     2175     2171 1
    1934     2176     2170 1
    1935     2177     2170 1
    1936     2178     2170 1
    1937     2179     2180 1
    1938     2181     2180 1
    1939     2182     2181 1
    1940     2183     2180 1
    1941     2184     2180 1
    1942     2185     2179 1
    1943     2186     2179 1
    1944     2187     2179 1
    1945     2188     2189 1
    1946     2190     2189 1
    1947     2191     2190 1
    1948     2192     2189 1
    1949     2193     2189 1
    1950     2194     2188 1
    1951     2195     2188 1
    1952     2196     2188 1
    1953     2197     2198 1
    1954     2199     2198 1
    1955     2200     2199 1
    1956     2201     2198 1
    1957     2202     2198 1
    1958     2203     2197 1
    1959     2204     2197 1
    1960     2205     2197 1
    1961     2206     2207 1
    1962     2208     2207 1
    1963     2209     2208 1
    1964     2210     2207 1
    1965     2211     2207 1
    1966     2212     2206 1
    1967     2213     2206 1
    1968     2214     2206 1
    1969     2215     2216 1
    1970     2217     2216 1
    1971     2218     2217 1
    1972     2219     2216 1
    1973     2220     2216 1
    1974     2221     2215 1
    1975     2222     2215 1
    1976     2223     2215 1
    1977     2224     2225 1
    1978     2226     2225 1
    1979     2227     2226 1
    1980     2228     2225 1
    1981     2229     2225 1
    1982     2230     2224 1
    1983     2231     2224 1
    1984     2232     2224 1
    1985     2233     2234 1
    1986     2235     2234 1
    1987     2236     2235 1
    1988     2237     2234 1
    1989     2238     2234 1
    1990     2239     2233 1
    1991     2240     2233 1
    1992     2241     2233 1
    1993     2242     2243 1
    1994     2244     2243 1
    1995     2245     2244 1
    1996     2246     2243 1
    1997     2247     2243 1
    1998     2248     2242 1
    1999     2249     2242 1
    2000     2250     2242 1
    2001     2251     2252 1
    2002     2253     2252 1
    2003     2254     2253 1
    2004     2255     2252 1
    2005     2256     2252 1
    2006     2257     2251 1
    2007     2258     2251 1
    2008     2259     2251 1
    2009     2260     2261 1
    2010     2262     2261 1
    2011     2263     2262 1
    2012     2264     2261 1
    2013     2265     2261 1
    2014     2266     2260 1
    2015     2267     2260 1
    2016     2268     2260 1
    2017     2269     2270 1
    2018     2271     2270 1
    2019     2272     2271 1
    2020     2273     2270 1
    2021     2274     2270 1
    2022     2275     2269 1
    2023     2276     2269 1
    2024     2277     2269 1
    2025     2278     2279 1
    2026     2280     2279 1
    2027     2281     2280 1
    2028     2282     2279 1
    2029     2283     2279 1
    2030     2284     2278 1
    2031     2285     2278 1
    2032     2286     2278 1
    2033     2287     2288 1
    2034     2289     2288 1
    2035     2290     2289 1
    2036     2291     2288 1
    2037     2292     2288 1
    2038     2293     2287 1
    2039     2294     2287 1
    2040     2295     2287 1
    2041     2296     2297 1
    2042     2298     2297 1
    2043     2299     2298 1
    2044     2300     2297 1
    2045     2301     2297 1
    2046     2302     2296 1
    2047     2303     2296 1
    2048     2304     2296 1
    2049     2305     2306 1
    2050     2307     2306 1
    2051     2308     2307 1
    2052     2309     2306 1
    2053     2310     2306 1
    2054     2311     2305 1
    2055     2312     2305 1
    2056     2313     2305 1
    2057     2314     2315 1
    2058     2316     2315 1
    2059     2317     2316 1
    2060     2318     2315 1
    2061     2319     2315 1
    2062     2320     2314 1
    2063     2321     2314 1
    2064     2322     2314 1
    2065     2323     2324 1
    2066     2325     2324 1
    2067     2326     2325 1
    2068     2327     2324 1
    2069     2328     2324 1
    2070     2329     2323 1
    2071     2330     2323 1
    2072     2331     2323 1
    2073     2332     2333 1
    2074     2334     2333 1
    2075     2335     2334 1
    2076     2336     2333 1
    2077     2337     2333 1
    2078     2338     2332 1
    2079     2339     2332 1
    2080     2340     2332 1
    2081     2341     2342 1
    2082     2343     2342 1
    2083     2344     2343 1
    2084     2345     2342 1
    2085     2346     2342 1
    2086     2347     2341 1
    2087     2348     2341 1
    2088     2349     2341 1
    2089     2350     2351 1
    2090     2352     2351 1
    2091     2353     2352 1
    2092     2354     2351 1
    2093     2355     2351 1
    2094     2356     2350 1
    2095     2357     2350 1
    2096     2358     2350 1
    2097     2359     2360 1
    2098     2361     2360 1
    2099     2362     2361 1
    2100     2363     2360 1
    2101     2364     2360 1
    2102     2365     2359 1
    2103     2366     2359 1
    2104     2367     2359 1
    2105     2368     2369 1
    2106     2370     2369 1
    2107     2371     2370 1
    2108     2372     2369 1
    2109     2373     2369 1
    2110     2374     2368 1
    2111     2375     2368 1
    2112     2376     2368 1
    2113     2377     2378 1
    2114     2379     2378 1
    2115     2380     2379 1
    2116     2381     2378 1
    2117     2382     2378 1
    2118     2383     2377 1
    2119     2384     2377 1
    2120     2385     2377 1
    2121     2386     2387 1
    2122     2388     2387 1
    2123     2389     2388 1
    2124     2390     2387 1
    2125     2391     2387 1
    2126     2392     2386 1
    2127     2393     2386 1
    2128     2394     2386 1
    2129     2395     2396 1
    2130     2397     2396 1
    2131     2398     2397 1
    2132     2399     2396 1
    2133     2400     2396 1
    2134     2401     2395 1
    2135     2402     2395 1
    2136     2403     2395 1
    2137     2404     2405 1
    2138     2406     2405 1
    2139     2407     2406 1
    2140     2408     2405 1
    2141     2409     2405 1
    2142     2410     2404 1
    2143     2411     2404 1
    2144     2412     2404 1
    2145     2413     2414 1
    2146     2415     2414 1
    2147     2416     2415 1
    2148     2417     2414 1
    2149     2418     2414 1
    2150     2419     2413 1
    2151     2420     2413 1
    2152     2421     2413 1
    2153     2422     2423 1
    2154     2424     2423 1
    2155     2425     2424 1
    2156     2426     2423 1
    2157     2427     2423 1
    2158     2428     2422 1
    2159     2429     2422 1
    2160     2430     2422 1
    2161     2431     2432 1
    2162     2433     2432 1
    2163     2434     2433 1
    2164     2435     2432 1
    2165     2436     2432 1
    2166     2437     2431 1
    2167     2438     2431 1
    2168     2439     2431 1
    2169     2440     2441 1
    2170     2442     2441 1
    2171     2443     2442 1
    2172     2444     2441 1
    2173     2445     2441 1
    2174     2446     2440 1
    2175     2447     2440 1
    2176     2448     2440 1
    2177     2449     2450 1
    2178     2451     2450 1
    2179     2452     2451 1
    2180     2453     2450 1
    2181     2454     2450 1
    2182     2455     2449 1
    2183     2456     2449 1
    2184     2457     2449 1
    2185     2458     2459 1
    2186     2460     2459 1
    2187     2461     2460 1
    2188     2462     2459 1
    2189     2463     2459 1
    2190     2464     2458 1
    2191     2465     2458 1
    2192     2466     2458 1
    2193     2467     2468 1
    2194     2469     2468 1
    2195     2470     2469 1
    2196     2471     2468 1
    2197     2472     2468 1
    2198     2473     2467 1
    2199     2474     2467 1
    2200     2475     2467 1
    2201     2476     2477 1
    2202     2478     2477 1
    2203     2479     2478 1
    2204     2480     2477 1
    2205     2481     2477 1
    2206     2482     2476 1
    2207     2483     2476 1
    2208     2484     2476 1
    2209     2485     2486 1
    2210     2487     2486 1
    2211     2488     2487 1
    2212     2489     2486 1
    2213     2490     2486 1
    2214     2491     2485 1
    2215     2492     2485 1
    2216     2493     2485 1
    2217     2494     2495 1
    2218     2496     2495 1
    2219     2497     2496 1
    2220     2498     2495 1
    2221     2499     2495 1
    2222     2500     2494 1
    2223     2501     2494 1
    2224     2502     2494 1
    2225     2503     2504 1
    2226     2505     2504 1
    2227     2506     2505 1
    2228     2507     2504 1
    2229     2508     2504 1
    2230     2509     2503 1
    2231     2510     2503 1
    2232     2511     2503 1
    2233     2512     2513 1
    2234     2514     2513 1
    2235     2515     2514 1
    2236     2516     2513 1
    2237     2517     2513 1
    2238     2518     2512 1
    2239     2519     2512 1
    2240     2520     2512 1
    2241     2521     2522 1
    2242     2523     2522 1
    2243     2524     2523 1
    2244     2525     2522 1
    2245     2526     2522 1
    2246     2527     2521 1
    2247     2528     2521 1
    2248     2529     2521 1
    2249     2530     2531 1
    2250     2532     2531 1
    2251     2533     2532 1
    2252     2534     2531 1
    2253     2535     2531 1
    2254     2536     2530 1
    2255     2537     2530 1
    2256     2538     2530 1
    2257     2539     2540 1
    2258     2541     2540 1
    2259     2542     2541 1
    2260     2543     2540 1
    2261     2544     2540 1
    2262     2545     2539 1
    2263     2546     2539 1
    2264     2547     2539 1
    2265     2548     2549 1
    2266     2550     2549 1
    2267     2551     2550 1
    2268     2552     2549 1
    2269     2553     2549 1
    2270     2554     2548 1
    2271     2555     2548 1
    2272     2556     2548 1
    2273     2557     2558 1
    2274     2559     2558 1
    2275     2560     2559 1
    2276     2561     2558 1
    2277     2562     2558 1
    2278     2563     2557 1
    2279     2564     2557 1
    2280     2565     2557 1
    2281     2566     2567 1
    2282     2568     2567 1
    2283     2569     2568 1
    2284     2570     2567 1
    2285     2571     2567 1
    2286     2572     2566 1
    2287     2573     2566 1
    2288     2574     2566 1
    2289     2575     2576 1
    2290     2577     2576 1
    2291     2578     2577 1
    2292     2579     2576 1
    2293     2580     2576 1
    2294     2581     2575 1
    2295     2582     2575 1
    2296     2583     2575 1
    2297     2584     2585 1
    2298     2586     2585 1
    2299     2587     2586 1
    2300     2588     2585 1
    2301     2589     2585 1
    2302     2590     2584 1
    2303     2591     2584 1
    2304     2592     2584 1
    2305     2593     2594 1
    2306     2595     2594 1
    2307     2596     2595 1
    2308     2597     2594 1
    2309     2598     2594 1
    2310     2599     2593 1
    2311     2600     2593 1
    2312     2601     2593 1
    2313     2602     2603 1
    2314     2604     2603 1
    2315     2605     2604 1
    2316     2606     2603 1
    2317     2607     2603 1
    2318     2608     2602 1
    2319     2609     2602 1
    2320     2610     2602 1
    2321     2611     2612 1
    2322     2613     2612 1
    2323     2614     2613 1
    2324     2615     2612 1
    2325     2616     2612 1
    2326     2617     2611 1
    2327     2618     2611 1
    2328     2619     2611 1
    2329     2620     2621 1
    2330     2622     2621 1
    2331     2623     2622 1
    2332     2624     2621 1
    2333     2625     2621 1
    2334     2626     2620 1
    2335     2627     2620 1
    2336     2628     2620 1
    2337     2629     2630 1
    2338     2631     2630 1
    2339     2632     2631 1
    2340     2633     2630 1
    2341     2634     2630 1
    2342     2635     2629 1
    2343     2636     2629 1
    2344     2637     2629 1
    2345     2638     2639 1
    2346     2640     2639 1
    2347     2641     2640 1
    2348     2642     2639 1
    2349     2643     2639 1
    2350     2644     2638 1
    2351     2645     2638 1
    2352     2646     2638 1
    2353     2647     2648 1
    2354     2649     2648 1
    2355     2650     2649 1
    2356     2651     2648 1
    2357     2652     2648 1
    2358     2653     2647 1
    2359     2654     2647 1
    2360     2655     2647 1
    2361     2656     2657 1
    2362     2658     2657 1
    2363     2659     2658 1
    2364     2660     2657 1
    2365     2661     2657 1
    2366     2662     2656 1
    2367     2663     2656 1
    2368     2664     2656 1
    2369     2665     2666 1
    2370     2667     2666 1
    2371     2668     2667 1
    2372     2669     2666 1
    2373     2670     2666 1
    2374     2671     2665 1
    2375     2672     2665 1
    2376     2673     2665 1
    2377     2674     2675 1
    2378     2676     2675 1
    2379     2677     2676 1
    2380     2678     2675 1
    2381     2679     2675 1
    2382     2680     2674 1
    2383     2681     2674 1
    2384     2682     2674 1
    2385     2683     2684 1
    2386     2685     2684 1
    2387     2686     2685 1
    2388     2687     2684 1
    2389     2688     2684 1
    2390     2689     2683 1
    2391     2690     2683 1
    2392     2691     2683 1
    2393     2692     2693 1
    2394     2694     2693 1
    2395     2695     2694 1
    2396     2696     2693 1
    2397     2697     2693 1
    2398     2698     2692 1
    2399     2699     2692 1
    2400     2700     2692 1
    2401     2701     2702 1
    2402     2703     2702 1
    2403     2704     2703 1
    2404     2705     2702 1
    2405     2706     2702 1
    2406     2707     2701 1
    2407     2708     2701 1
    2408     2709     2701 1
    2409     2710     2711 1
    2410     2712     2711 1
    2411     2713     2712 1
    2412     2714     2711 1
    2413     2715     2711 1
    2414     2716     2710 1
    2415     2717     2710 1
    2416     2718     2710 1
    2417     2719     2720 1
    2418     2721     2720 1
    2419     2722     2721 1
    2420     2723     2720 1
    2421     2724     2720 1
    2422     2725     2719 1
    2423     2726     2719 1
    2424     2727     2719 1
    2425     2728     2729 1
    2426     2730     2729 1
    2427     2731     2730 1
    2428     2732     2729 1
    2429     2733     2729 1
    2430     2734     2728 1
    2431     2735     2728 1
    2432     2736     2728 1
    2433     2737     2738 1
    2434     2739     2738 1
    2435     2740     2739 1
    2436     2741     2738 1
    2437     2742     2738 1
    2438     2743     2737 1
    2439     2744     2737 1
    2440     2745     2737 1
    2441     2746     2747 1
    2442     2748     2747 1
    2443     2749     2748 1
    2444     2750     2747 1
    2445     2751     2747 1
    2446     2752     2746 1
    2447     2753     2746 1
    2448     2754     2746 1
    2449     2755     2756 1
    2450     2757     2756 1
    2451     2758     2757 1
    2452     2759     2756 1
    2453     2760     2756 1
    2454     2761     2755 1
    2455     2762     2755 1
    2456     2763     2755 1
    2457     2764     2765 1
    2458     2766     2765 1
    2459     2767     2766 1
    2460     2768     2765 1
    2461     2769     2765 1
    2462     2770     2764 1
    2463     2771     2764 1
    2464     2772     2764 1
    2465     2773     2774 1
    2466     2775     2774 1
    2467     2776     2775 1
    2468     2777     2774 1
    2469     2778     2774 1
    2470     2779     2773 1
    2471     2780     2773 1
    2472     2781     2773 1
    2473     2782     2783 1
    2474     2784     2783 1
    2475     2785     2784 1
    2476     2786     2783 1
    2477     2787     2783 1
    2478     2788     2782 1
    2479     2789     2782 1
    2480     2790     2782 1
    2481     2791     2792 1
    2482     2793     2792 1
    2483     2794     2793 1
    2484     2795     2792 1
    2485     2796     2792 1
    2486     2797     2791 1
    2487     2798     2791 1
    2488     2799     2791 1
    2489     2800     2801 1
    2490     2802     2801 1
    2491     2803     2802 1
    2492     2804     2801 1
    2493     2805     2801 1
    2494     2806     2800 1
    2495     2807     2800 1
    2496     2808     2800 1
    2497     2809     2810 1
    2498     2811     2810 1
    2499     2812     2811 1
    2500     2813     2810 1
    2501     2814     2810 1
    2502     2815     2809 1
    2503     2816     2809 1
    2504     2817     2809 1
    2505     2818     2819 1
    2506     2820     2819 1
    2507     2821     2820 1
    2508     2822     2819 1
    2509     2823     2819 1
    2510     2824     2818 1
    2511     2825     2818 1
    2512     2826     2818 1
    2513     2827     2828 1
    2514     2829     2828 1
    2515     2830     2829 1
    2516     2831     2828 1
    2517     2832     2828 1
    2518     2833     2827 1
    2519     2834     2827 1
    2520     2835     2827 1
    2521     2836     2837 1
    2522     2838     2837 1
    2523     2839     2838 1
    2524     2840     2837 1
    2525     2841     2837 1
    2526     2842     2836 1
    2527     2843     2836 1
    2528     2844     2836 1
    2529     2845     2846 1
    2530     2847     2846 1
    2531     2848     2847 1
    2532     2849     2846 1
    2533     2850     2846 1
    2534     2851     2845 1
    2535     2852     2845 1
    2536     2853     2845 1
    2537     2854     2855 1
    2538     2856     2855 1
    2539     2857     2856 1
    2540     2858     2855 1
    2541     2859     2855 1
    2542     2860     2854 1
    2543     2861     2854 1
    2544     2862     2854 1
    2545     2863     2864 1
    2546     2865     2864 1
    2547     2866     2865 1
    2548     2867     2864 1
    2549     2868     2864 1
    2550     2869     2863 1
    2551     2870     2863 1
    2552     2871     2863 1
    2553     2872     2873 1
    2554     2874     2873 1
    2555     2875     2874 1
    2556     2876     2873 1
    2557     2877     2873 1
    2558     2878     2872 1
    2559     2879     2872 1
    2560     2880     2872 1
    2561     2881     2882 1
    2562     2883     2882 1
    2563     2884     2883 1
    2564     2885     2882 1
    2565     2886     2882 1
    2566     2887     2881 1
    2567     2888     2881 1
    2568     2889     2881 1
    2569     2890     2891 1
    2570     2892     2891 1
    2571     2893     2892 1
    2572     2894     2891 1
    2573     2895     2891 1
    2574     2896     2890 1
    2575     2897     2890 1
    2576     2898     2890 1
    2577     2899     2900 1
    2578     2901     2900 1
    2579     2902     2901 1
    2580     2903     2900 1
    2581     2904     2900 1
    2582     2905     2899 1
    2583     2906     2899 1
    2584     2907     2899 1
    2585     2908     2909 1
    2586     2910     2909 1
    2587     2911     2910 1
    2588     2912     2909 1
    2589     2913     2909 1
    2590     2914     2908 1
    2591     2915     2908 1
    2592     2916     2908 1
    2593     2917     2918 1
    2594     2919     2918 1
    2595     2920     2919 1
    2596     2921     2918 1
    2597     2922     2918 1
    2598     2923     2917 1
    2599     2924     2917 1
    2600     2925     2917 1
    2601     2926     2927 1
    2602     2928     2927 1
    2603     2929     2928 1
    2604     2930     2927 1
    2605     2931     2927 1
    2606     2932     2926 1
    2607     2933     2926 1
    2608     2934     2926 1
    2609     2935     2936 1
    2610     2937     2936 1
    2611     2938     2937 1
    2612     2939     2936 1
    2613     2940     2936 1
    2614     2941     2935 1
    2615     2942     2935 1
    2616     2943     2935 1
    2617     2944     2945 1
    2618     2946     2945 1
    2619     2947     2946 1
    2620     2948     2945 1
    2621     2949     2945 1
    2622     2950     2944 1
    2623     2951     2944 1
    2624     2952     2944 1
    2625     2953     2954 1
    2626     2955     2954 1
    2627     2956     2955 1
    2628     2957     2954 1
    2629     2958     2954 1
    2630     2959     2953 1
    2631     2960     2953 1
    2632     2961     2953 1
    2633     2962     2963 1
    2634     2964     2963 1
    2635     2965     2964 1
    2636     2966     2963 1
    2637     2967     2963 1
    2638     2968     2962 1
    2639     2969     2962 1
    2640     2970     2962 1
    2641     2971     2972 1
    2642     2973     2972 1
    2643     2974     2973 1
    2644     2975     2972 1
    2645     2976     2972 1
    2646     2977     2971 1
    2647     2978     2971 1
    2648     2979     2971 1
    2649     2980     2981 1
    2650     2982     2981 1
    2651     2983     2982 1
    2652     2984     2981 1
    2653     2985     2981 1
    2654     2986     2980 1
    2655     2987     2980 1
    2656     2988     2980 1
    2657     2989     2990 1
    2658     2991     2990 1
    2659     2992     2991 1
    2660     2993     2990 1
    2661     2994     2990 1
    2662     2995     2989 1
    2663     2996     2989 1
    2664     2997     2989 1
    2665     2998     2999 1
    2666     3000     2999 1
    2667     3001     3000 1
    2668     3002     2999 1
    2669     3003     2999 1
    2670     3004     2998 1
    2671     3005     2998 1
    2672     3006     2998 1
    2673     3007     3008 1
    2674     3009     3008 1
    2675     3010     3009 1
    2676     3011     3008 1
    2677     3012     3008 1
    2678     3013     3007 1
    2679     3014     3007 1
    2680     3015     3007 1
    2681     3016     3017 1
    2682     3018     3017 1
    2683     3019     3018 1
    2684     3020     3017 1
    2685     3021     3017 1
    2686     3022     3016 1
    2687     3023     3016 1
    2688     3024     3016 1
    2689     3025     3026 1
    2690     3027     3026 1
    2691     3028     3027 1
    2692     3029     3026 1
    2693     3030     3026 1
    2694     3031     3025 1
    2695     3032     3025 1
    2696     3033     3025 1
    2697     3034     3035 1
    2698     3036     3035 1
    2699     3037     3036 1
    2700     3038     3035 1
    2701     3039     3035 1
    2702     3040     3034 1
    2703     3041     3034 1
    2704     3042     3034 1
    2705     3043     3044 1
    2706     3045     3044 1
    2707     3046     3045 1
    2708     3047     3044 1
    2709     3048     3044 1
    2710     3049     3043 1
    2711     3050     3043 1
    2712     3051     3043 1
    2713     3052     3053 1
    2714     3054     3053 1
    2715     3055     3054 1
    2716     3056     3053 1
    2717     3057     3053 1
    2718     3058     3052 1
    2719     3059     3052 1
    2720     3060     3052 1
    2721     3061     3062 1
    2722     3063     3062 1
    2723     3064     3063 1
    2724     3065     3062 1
    2725     3066     3062 1
    2726     3067     3061 1
    2727     3068     3061 1
    2728     3069     3061 1
    2729     3070     3071 1
    2730     3072     3071 1
    2731     3073     3072 1
    2732     3074     3071 1
    2733     3075     3071 1
    2734     3076     3070 1
    2735     3077     3070 1
    2736     3078     3070 1
    2737     3079     3080 1
    2738     3081     3080 1
    2739     3082     3081 1
    2740     3083     3080 1
    2741     3084     3080 1
    2742     3085     3079 1
    2743     3086     3079 1
    2744     3087     3079 1
    2745     3088     3089 1
    2746     3090     3089 1
    2747     3091     3090 1
    2748     3092     3089 1
    2749     3093     3089 1
    2750     3094     3088 1
    2751     3095     3088 1
    2752     3096     3088 1
    2753     3097     3098 1
    2754     3099     3098 1
    2755     3100     3099 1
    2756     3101     3098 1
    2757     3102     3098 1
    2758     3103     3097 1
    2759     3104     3097 1
    2760     3105     3097 1
    2761     3106     3107 1
    2762     3108     3107 1
    2763     3109     3108 1
    2764     3110     3107 1
    2765     3111     3107 1
    2766     3112     3106 1
    2767     3113     3106 1
    2768     3114     3106 1
    2769     3115     3116 1
    2770     3117     3116 1
    2771     3118     3117 1
    2772     3119     3116 1
    2773     3120     3116 1
    2774     3121     3115 1
    2775     3122     3115 1
    2776     3123     3115 1
    2777     3124     3125 1
    2778     3126     3125 1
    2779     3127     3126 1
    2780     3128     3125 1
    2781     3129     3125 1
    2782     3130     3124 1
    2783     3131     3124 1
    2784     3132     3124 1
    2785     3133     3134 1
    2786     3135     3134 1
    2787     3136     3135 1
    2788     3137     3134 1
    2789     3138     3134 1
    2790     3139     3133 1
    2791     3140     3133 1
    2792     3141     3133 1
    2793     3142     3143 1
    2794     3144     3143 1
    2795     3145     3144 1
    2796     3146     3143 1
    2797     3147     3143 1
    2798     3148     3142 1
    2799     3149     3142 1
    2800     3150     3142 1
    2801     3151     3152 1
    2802     3153     3152 1
    2803     3154     3153 1
    2804     3155     3152 1
    2805     3156     3152 1
    2806     3157     3151 1
    2807     3158     3151 1
    2808     3159     3151 1
    2809     3160     3161 1
    2810     3162     3161 1
    2811     3163     3162 1
    2812     3164     3161 1
    2813     3165     3161 1
    2814     3166     3160 1
    2815     3167     3160 1
    2816     3168     3160 1
    2817     3169     3170 1
    2818     3171     3170 1
    2819     3172     3171 1
    2820     3173     3170 1
    2821     3174     3170 1
    2822     3175     3169 1
    2823     3176     3169 1
    2824     3177     3169 1
    2825     3178     3179 1
    2826     3180     3179 1
    2827     3181     3180 1
    2828     3182     3179 1
    2829     3183     3179 1
    2830     3184     3178 1
    2831     3185     3178 1
    2832     3186     3178 1
    2833     3187     3188 1
    2834     3189     3188 1
    2835     3190     3189 1
    2836     3191     3188 1
    2837     3192     3188 1
    2838     3193     3187 1
    2839     3194     3187 1
    2840     3195     3187 1
    2841     3196     3197 1
    2842     3198     3197 1
    2843     3199     3198 1
    2844     3200     3197 1
    2845     3201     3197 1
    2846     3202     3196 1
    2847     3203     3196 1
    2848     3204     3196 1
    2849     3205     3206 1
    2850     3207     3206 1
    2851     3208     3207 1
    2852     3209     3206 1
    2853     3210     3206 1
    2854     3211     3205 1
    2855     3212     3205 1
    2856     3213     3205 1
    2857     3214     3215 1
    2858     3216     3215 1
    2859     3217     3216 1
    2860     3218     3215 1
    2861     3219     3215 1
    2862     3220     3214 1
    2863     3221     3214 1
    2864     3222     3214 1
    2865     3223     3224 1
    2866     3225     3224 1
    2867     3226     3225 1
    2868     3227     3224 1
    2869     3228     3224 1
    2870     3229     3223 1
    2871     3230     3223 1
    2872     3231     3223 1
    2873     3232     3233 1
    2874     3234     3233 1
    2875     3235     3234 1
    2876     3236     3233 1
    2877     3237     3233 1
    2878     3238     3232 1
    2879     3239     3232 1
    2880     3240     3232 1
    2881     3241     3242 1
    2882     3243     3242 1
    2883     3244     3243 1
    2884     3245     3242 1
    2885     3246     3242 1
    2886     3247     3241 1
    2887     3248     3241 1
    2888     3249     3241 1
    2889     3250     3251 1
    2890     3252     3251 1
    2891     3253     3252 1
    2892     3254     3251 1
    2893     3255     3251 1
    2894     3256     3250 1
    2895     3257     3250 1
    2896     3258     3250 1
    2897     3259     3260 1
    2898     3261     3260 1
    2899     3262     3261 1
    2900     3263     3260 1
    2901     3264     3260 1
    2902     3265     3259 1
    2903     3266     3259 1
    2904     3267     3259 1
    2905     3268     3269 1
    2906     3270     3269 1
    2907     3271     3270 1
    2908     3272     3269 1
    2909     3273     3269 1
    2910     3274     3268 1
    2911     3275     3268 1
    2912     3276     3268 1
    2913     3277     3278 1
    2914     3279     3278 1
    2915     3280     3279 1
    2916     3281     3278 1
    2917     3282     3278 1
    2918     3283     3277 1
    2919     3284     3277 1
    2920     3285     3277 1
    2921     3286     3287 1
    2922     3288     3287 1
    2923     3289     3288 1
    2924     3290     3287 1
    2925     3291     3287 1
    2926     3292     3286 1
    2927     3293     3286 1
    2928     3294     3286 1
    2929     3295     3296 1
    2930     3297     3296 1
    2931     3298     3297 1
    2932     3299     3296 1
    2933     3300     3296 1
    2934     3301     3295 1
    2935     3302     3295 1
    2936     3303     3295 1
    2937     3304     3305 1
    2938     3306     3305 1
    2939     3307     3306 1
    2940     3308     3305 1
    2941     3309     3305 1
    2942     3310     3304 1
    2943     3311     3304 1
    2944     3312     3304 1
    2945     3313     3314 1
    2946     3315     3314 1
    2947     3316     3315 1
    2948     3317     3314 1
    2949     3318     3314 1
    2950     3319     3313 1
    2951     3320     3313 1
    2952     3321     3313 1
    2953     3322     3323 1
    2954     3324     3323 1
    2955     3325     3324 1
    2956     3326     3323 1
    2957     3327     3323 1
    2958     3328     3322 1
    2959     3329     3322 1
    2960     3330     3322 1
    2961     3331     3332 1
    2962     3333     3332 1
    2963     3334     3333 1
    2964     3335     3332 1
    2965     3336     3332 1
    2966     3337     3331 1
    2967     3338     3331 1
    2968     3339     3331 1
    2969     3340     3341 1
    2970     3342     3341 1
    2971     3343     3342 1
    2972     3344     3341 1
    2973     3345     3341 1
    2974     3346     3340 1
    2975     3347     3340 1
    2976     3348     3340 1
    2977     3349     3350 1
    2978     3351     3350 1
    2979     3352     3351 1
    2980     3353     3350 1
    2981     3354     3350 1
    2982     3355     3349 1
    2983     3356     3349 1
    2984     3357     3349 1
    2985     3358     3359 1
    2986     3360     3359 1
    2987     3361     3360 1
    2988     3362     3359 1
    2989     3363     3359 1
    2990     3364     3358 1
    2991     3365     3358 1
    2992     3366     3358 1
    2993     3367     3368 1
    2994     3369     3368 1
    2995     3370     3369 1
    2996     3371     3368 1
    2997     3372     3368 1
    2998     3373     3367 1
    2999     3374     3367 1
    3000     3375     3367 1
    3001     3376     3377 1
    3002     3378     3377 1
    3003     3379     3378 1
    3004     3380     3377 1
    3005     3381     3377 1
    3006     3382     3376 1
    3007     3383     3376 1
    3008     3384     3376 1
    3009     3385     3386 1
    3010     3387     3386 1
    3011     3388     3387 1
    3012     3389     3386 1
    3013     3390     3386 1
    3014     3391     3385 1
    3015     3392     3385 1
    3016     3393     3385 1
    3017     3394     3395 1
    3018     3396     3395 1
    3019     3397     3396 1
    3020     3398     3395 1
    3021     3399     3395 1
    3022     3400     3394 1
    3023     3401     3394 1
    3024     3402     3394 1
    3025     3403     3404 1
    3026     3405     3404 1
    3027     3406     3405 1
    3028     3407     3404 1
    3029     3408     3404 1
    3030     3409     3403 1
    3031     3410     3403 1
    3032     3411     3403 1
    3033     3412     3413 1
    3034     3414     3413 1
    3035     3415     3414 1
    3036     3416     3413 1
    3037     3417     3413 1
    3038     3418     3412 1
    3039     3419     3412 1
    3040     3420     3412 1
    3041     3421     3422 1
    3042     3423     3422 1
    3043     3424     3423 1
    3044     3425     3422 1
    3045     3426     3422 1
    3046     3427     3421 1
    3047     3428     3421 1
    3048     3429     3421 1
    3049     3430     3431 1
    3050     3432     3431 1
    3051     3433     3432 1
    3052     3434     3431 1
    3053     3435     3431 1
    3054     3436     3430 1
    3055     3437     3430 1
    3056     3438     3430 1
    3057     3439     3440 1
    3058     3441     3440 1
    3059     3442     3441 1
    3060     3443     3440 1
    3061     3444     3440 1
    3062     3445     3439 1
    3063     3446     3439 1
    3064     3447     3439 1
    3065     3448     3449 1
    3066     3450     3449 1
    3067     3451     3450 1
    3068     3452     3449 1
    3069     3453     3449 1
    3070     3454     3448 1
    3071     3455     3448 1
    3072     3456     3448 1
    3073     3457     3458 1
    3074     3459     3458 1
    3075     3460     3459 1
    3076     3461     3458 1
    3077     3462     3458 1
    3078     3463     3457 1
    3079     3464     3457 1
    3080     3465     3457 1
    3081     3466     3467 1
    3082     3468     3467 1
    3083     3469     3468 1
    3084     3470     3467 1
    3085     3471     3467 1
    3086     3472     3466 1
    3087     3473     3466 1
    3088     3474     3466 1
    3089     3475     3476 1
    3090     3477     3476 1
    3091     3478     3477 1
    3092     3479     3476 1
    3093     3480     3476 1
    3094     3481     3475 1
    3095     3482     3475 1
    3096     3483     3475 1
    3097     3484     3485 1
    3098     3486     3485 1
    3099     3487     3486 1
    3100     3488     3485 1
    3101     3489     3485 1
    3102     3490     3484 1
    3103     3491     3484 1
    3104     3492     3484 1
    3105     3493     3494 1
    3106     3495     3494 1
    3107     3496     3495 1
    3108     3497     3494 1
    3109     3498     3494 1
    3110     3499     3493 1
    3111     3500     3493 1
    3112     3501     3493 1
    3113     3502     3503 1
    3114     3504     3503 1
    3115     3505     3504 1
    3116     3506     3503 1
    3117     3507     3503 1
    3118     3508     3502 1
    3119     3509     3502 1
    3120     3510     3502 1
    3121     3511     3512 1
    3122     3513     3512 1
    3123     3514     3513 1
    3124     3515     3512 1
    3125     3516     3512 1
    3126     3517     3511 1
    3127     3518     3511 1
    3128     3519     3511 1
    3129     3520     3521 1
    3130     3522     3521 1
    3131     3523     3522 1
    3132     3524     3521 1
    3133     3525     3521 1
    3134     3526     3520 1
    3135     3527     3520 1
    3136     3528     3520 1
    3137     3529     3530 1
    3138     3531     3530 1
    3139     3532     3531 1
    3140     3533     3530 1
    3141     3534     3530 1
    3142     3535     3529 1
    3143     3536     3529 1
    3144     3537     3529 1
    3145     3538     3539 1
    3146     3540     3539 1
    3147     3541     3540 1
    3148     3542     3539 1
    3149     3543     3539 1
    3150     3544     3538 1
    3151     3545     3538 1
    3152     3546     3538 1
    3153     3547     3548 1
    3154     3549     3548 1
    3155     3550     3549 1
    3156     3551     3548 1
    3157     3552     3548 1
    3158     3553     3547 1
    3159     3554     3547 1
    3160     3555     3547 1
    3161     3556     3557 1
    3162     3558     3557 1
    3163     3559     3558 1
    3164     3560     3557 1
    3165     3561     3557 1
    3166     3562     3556 1
    3167     3563     3556 1
    3168     3564     3556 1
    3169     3565     3566 1
    3170     3567     3566 1
    3171     3568     3567 1
    3172     3569     3566 1
    3173     3570     3566 1
    3174     3571     3565 1
    3175     3572     3565 1
    3176     3573     3565 1
    3177     3574     3575 1
    3178     3576     3575 1
    3179     3577     3576 1
    3180     3578     3575 1
    3181     3579     3575 1
    3182     3580     3574 1
    3183     3581     3574 1
    3184     3582     3574 1
    3185     3583     3584 1
    3186     3585     3584 1
    3187     3586     3585 1
    3188     3587     3584 1
    3189     3588     3584 1
    3190     3589     3583 1
    3191     3590     3583 1
    3192     3591     3583 1
    3193     3592     3593 1
    3194     3594     3593 1
    3195     3595     3594 1
    3196     3596     3593 1
    3197     3597     3593 1
    3198     3598     3592 1
    3199     3599     3592 1
    3200     3600     3592 1
    3201     3601     3602 1
    3202     3603     3602 1
    3203     3604     3603 1
    3204     3605     3602 1
    3205     3606     3602 1
    3206     3607     3601 1
    3207     3608     3601 1
    3208     3609     3601 1
    3209     3610     3611 1
    3210     3612     3611 1
    3211     3613     3612 1
    3212     3614     3611 1
    3213     3615     3611 1
    3214     3616     3610 1
    3215     3617     3610 1
    3216     3618     3610 1
    3217     3619     3620 1
    3218     3621     3620 1
    3219     3622     3621 1
    3220     3623     3620 1
    3221     3624     3620 1
    3222     3625     3619 1
    3223     3626     3619 1
    3224     3627     3619 1
    3225     3628     3629 1
    3226     3630     3629 1
    3227     3631     3630 1
    3228     3632     3629 1
    3229     3633     3629 1
    3230     3634     3628 1
    3231     3635     3628 1
    3232     3636     3628 1
    3233     3637     3638 1
    3234     3639     3638 1
    3235     3640     3639 1
    3236     3641     3638 1
    3237     3642     3638 1
    3238     3643     3637 1
    3239     3644     3637 1
    3240     3645     3637 1
    3241     3646     3647 1
    3242     3648     3647 1
    3243     3649     3648 1
    3244     3650     3647 1
    3245     3651     3647 1
    3246     3652     3646 1
    3247     3653     3646 1
    3248     3654     3646 1
    3249     3655     3656 1
    3250     3657     3656 1
    3251     3658     3657 1
    3252     3659     3656 1
    3253     3660     3656 1
    3254     3661     3655 1
    3255     3662     3655 1
    3256     3663     3655 1
    3257     3664     3665 1
    3258     3666     3665 1
    3259     3667     3666 1
    3260     3668     3665 1
    3261     3669     3665 1
    3262     3670     3664 1
    3263     3671     3664 1
    3264     3672     3664 1
    3265     3673     3674 1
    3266     3675     3674 1
    3267     3676     3675 1
    3268     3677     3674 1
    3269     3678     3674 1
    3270     3679     3673 1
    3271     3680     3673 1
    3272     3681     3673 1
    3273     3682     3683 1
    3274     3684     3683 1
    3275     3685     3684 1
    3276     3686     3683 1
    3277     3687     3683 1
    3278     3688     3682 1
    3279     3689     3682 1
    3280     3690     3682 1
    3281     3691     3692 1
    3282     3693     3692 1
    3283     3694     3693 1
    3284     3695     3692 1
    3285     3696     3692 1
    3286     3697     3691 1
    3287     3698     3691 1
    3288     3699     3691 1
    3289     3700     3701 1
    3290     3702     3701 1
    3291     3703     3702 1
    3292     3704     3701 1
    3293     3705     3701 1
    3294     3706     3700 1
    3295     3707     3700 1
    3296     3708     3700 1
    3297     3709     3710 1
    3298     3711     3710 1
    3299     3712     3711 1
    3300     3713     3710 1
    3301     3714     3710 1
    3302     3715     3709 1
    3303     3716     3709 1
    3304     3717     3709 1
    3305     3718     3719 1
    3306     3720     3719 1
    3307     3721     3720 1
    3308     3722     3719 1
    3309     3723     3719 1
    3310     3724     3718 1
    3311     3725     3718 1
    3312     3726     3718 1
    3313     3727     3728 1
    3314     3729     3728 1
    3315     3730     3729 1
    3316     3731     3728 1
    3317     3732     3728 1
    3318     3733     3727 1
    3319     3734     3727 1
    3320     3735     3727 1
    3321     3736     3737 1
    3322     3738     3737 1
    3323     3739     3738 1
    3324     3740     3737 1
    3325     3741     3737 1
    3326     3742     3736 1
    3327     3743     3736 1
    3328     3744     3736 1
    3329     3745     3746 1
    3330     3747     3746 1
    3331     3748     3747 1
    3332     3749     3746 1
    3333     3750     3746 1
    3334     3751     3745 1
    3335     3752     3745 1
    3336     3753     3745 1
    3337     3754     3755 1
    3338     3756     3755 1
    3339     3757     3756 1
    3340     3758     3755 1
    3341     3759     3755 1
    3342     3760     3754 1
    3343     3761     3754 1
    3344     3762     3754 1
    3345     3763     3764 1
    3346     3765     3764 1
    3347     3766     3765 1
    3348     3767     3764 1
    3349     3768     3764 1
    3350     3769     3763 1
    3351     3770     3763 1
    3352     3771     3763 1
    3353     3772     3773 1
    3354     3774     3773 1
    3355     3775     3774 1
    3356     3776     3773 1
    3357     3777     3773 1
    3358     3778     3772 1
    3359     3779     3772 1
    3360     3780     3772 1
    3361     3781     3782 1
    3362     3783     3782 1
    3363     3784     3783 1
    3364     3785     3782 1
    3365     3786     3782 1
    3366     3787     3781 1
    3367     3788     3781 1
    3368     3789     3781 1
    3369     3790     3791 1
    3370     3792     3791 1
    3371     3793     3792 1
    3372     3794     3791 1
    3373     3795     3791 1
    3374     3796     3790 1
    3375     3797     3790 1
    3376     3798     3790 1
    3377     3799     3800 1
    3378     3801     3800 1
    3379     3802     3801 1
    3380     3803     3800 1
    3381     3804     3800 1
    3382     3805     3799 1
    3383     3806     3799 1
    3384     3807     3799 1
    3385     3808     3809 1
    3386     3810     3809 1
    3387     3811     3810 1
    3388     3812     3809 1
    3389     3813     3809 1
    3390     3814     3808 1
    3391     3815     3808 1
    3392     3816     3808 1
    3393     3817     3818 1
    3394     3819     3818 1
    3395     3820     3819 1
    3396     3821     3818 1
    3397     3822     3818 1
    3398     3823     3817 1
    3399     3824     3817 1
    3400     3825     3817 1
    3401     3826     3827 1
    3402     3828     3827 1
    3403     3829     3828 1
    3404     3830     3827 1
    3405     3831     3827 1
    3406     3832     3826 1
    3407     3833     3826 1
    3408     3834     3826 1
    3409     3835     3836 1
    3410     3837     3836 1
    3411     3838     3837 1
    3412     3839     3836 1
    3413     3840     3836 1
    3414     3841     3835 1
    3415     3842     3835 1
    3416     3843     3835 1
    3417     3844     3845 1
    3418     3846     3845 1
    3419     3847     3846 1
    3420     3848     3845 1
    3421     3849     3845 1
    3422     3850     3844 1
    3423     3851     3844 1
    3424     3852     3844 1
    3425     3853     3854 1
    3426     3855     3854 1
    3427     3856     3855 1
    3428     3857     3854 1
    3429     3858     3854 1
    3430     3859     3853 1
    3431     3860     3853 1
    3432     3861     3853 1
    3433     3862     3863 1
    3434     3864     3863 1
    3435     3865     3864 1
    3436     3866     3863 1
    3437     3867     3863 1
    3438     3868     3862 1
    3439     3869     3862 1
    3440     3870     3862 1
    3441     3871     3872 1
    3442     3873     3872 1
    3443     3874     3873 1
    3444     3875     3872 1
    3445     3876     3872 1
    3446     3877     3871 1
    3447     3878     3871 1
    3448     3879     3871 1
    3449     3880     3881 1
    3450     3882     3881 1
    3451     3883     3882 1
    3452     3884     3881 1
    3453     3885     3881 1
    3454     3886     3880 1
    3455     3887     3880 1
    3456     3888     3880 1
    3457     3889     3890 1
    3458     3891     3890 1
    3459     3892     3891 1
    3460     3893     3890 1
    3461     3894     3890 1
    3462     3895     3889 1
    3463     3896     3889 1
    3464     3897     3889 1
    3465     3898     3899 1
    3466     3900     3899 1
    3467     3901     3900 1
    3468     3902     3899 1
    3469     3903     3899 1
    3470     3904     3898 1
    3471     3905     3898 1
    3472     3906     3898 1
    3473     3907     3908 1
    3474     3909     3908 1
    3475     3910     3909 1
    3476     3911     3908 1
    3477     3912     3908 1
    3478     3913     3907 1
    3479     3914     3907 1
    3480     3915     3907 1
    3481     3916     3917 1
    3482     3918     3917 1
    3483     3919     3918 1
    3484     3920     3917 1
    3485     3921     3917 1
    3486     3922     3916 1
    3487     3923     3916 1
    3488     3924     3916 1
    3489     3925     3926 1
    3490     3927     3926 1
    3491     3928     3927 1
    3492     3929     3926 1
    3493     3930     3926 1
    3494     3931     3925 1
    3495     3932     3925 1
    3496     3933     3925 1
    3497     3934     3935 1
    3498     3936     3935 1
    3499     3937     3936 1
    3500     3938     3935 1
    3501     3939     3935 1
    3502     3940     3934 1
    3503     3941     3934 1
    3504     3942     3934 1
    3505     3943     3944 1
    3506     3945     3944 1
    3507     3946     3945 1
    3508     3947     3944 1
    3509     3948     3944 1
    3510     3949     3943 1
    3511     3950     3943 1
    3512     3951     3943 1
    3513     3952     3953 1
    3514     3954     3953 1
    3515     3955     3954 1
    3516     3956     3953 1
    3517     3957     3953 1
    3518     3958     3952 1
    3519     3959     3952 1
    3520     3960     3952 1
    3521     3961     3962 1
    3522     3963     3962 1
    3523     3964     3963 1
    3524     3965     3962 1
    3525     3966     3962 1
    3526     3967     3961 1
    3527     3968     3961 1
    3528     3969     3961 1
    3529     3970     3971 1
    3530     3972     3971 1
    3531     3973     3972 1
    3532     3974     3971 1
    3533     3975     3971 1
    3534     3976     3970 1
    3535     3977     3970 1
    3536     3978     3970 1
    3537     3979     3980 1
    3538     3981     3980 1
    3539     3982     3981 1
    3540     3983     3980 1
    3541     3984     3980 1
    3542     3985     3979 1
    3543     3986     3979 1
    3544     3987     3979 1
    3545     3988     3989 1
    3546     3990     3989 1
    3547     3991     3990 1
    3548     3992     3989 1
    3549     3993     3989 1
    3550     3994     3988 1
    3551     3995     3988 1
    3552     3996     3988 1
    3553     3997     3998 1
    3554     3999     3998 1
    3555     4000     3999 1
    3556     4001     3998 1
    3557     4002     3998 1
    3558     4003     3997 1
    3559     4004     3997 1
    3560     4005     3997 1
    3561     4006     4007 1
    3562     4008     4007 1
    3563     4009     4008 1
    3564     4010     4007 1
    3565     4011     4007 1
    3566     4012     4006 1
    3567     4013     4006 1
    3568     4014     4006 1
    3569     4015     4016 1
    3570     4017     4016 1
    3571     4018     4017 1
    3572     4019     4016 1
    3573     4020     4016 1
    3574     4021     4015 1
    3575     4022     4015 1
    3576     4023     4015 1
    3577     4024     4025 1
    3578     4026     4025 1
    3579     4027     4026 1
    3580     4028     4025 1
    3581     4029     4025 1
    3582     4030     4024 1
    3583     4031     4024 1
    3584     4032     4024 1
    3585     4033     4034 1
    3586     4035     4034 1
    3587     4036     4035 1
    3588     4037     4034 1
    3589     4038     4034 1
    3590     4039     4033 1
    3591     4040     4033 1
    3592     4041     4033 1
    3593     4042     4043 1
    3594     4044     4043 1
    3595     4045     4044 1
    3596     4046     4043 1
    3597     4047     4043 1
    3598     4048     4042 1
    3599     4049     4042 1
    3600     4050     4042 1
    3601     4051     4052 1
    3602     4053     4052 1
    3603     4054     4053 1
    3604     4055     4052 1
    3605     4056     4052 1
    3606     4057     4051 1
    3607     4058     4051 1
    3608     4059     4051 1
    3609     4060     4061 1
    3610     4062     4061 1
    3611     4063     4062 1
    3612     4064     4061 1
    3613     4065     4061 1
    3614     4066     4060 1
    3615     4067     4060 1
    3616     4068     4060 1
    3617     4069     4070 1
    3618     4071     4070 1
    3619     4072     4071 1
    3620     4073     4070 1
    3621     4074     4070 1
    3622     4075     4069 1
    3623     4076     4069 1
    3624     4077     4069 1
    3625     4078     4079 1
    3626     4080     4079 1
    3627     4081     4080 1
    3628     4082     4079 1
    3629     4083     4079 1
    3630     4084     4078 1
    3631     4085     4078 1
    3632     4086     4078 1
    3633     4087     4088 1
    3634     4089     4088 1
    3635     4090     4089 1
    3636     4091     4088 1
    3637     4092     4088 1
    3638     4093     4087 1
    3639     4094     4087 1
    3640     4095     4087 1
    3641     4096     4097 1
    3642     4098     4097 1
    3643     4099     4098 1
    3644     4100     4097 1
    3645     4101     4097 1
    3646     4102     4096 1
    3647     4103     4096 1
    3648     4104     4096 1
    3649     4105     4106 1
    3650     4107     4106 1
    3651     4108     4107 1
    3652     4109     4106 1
    3653     4110     4106 1
    3654     4111     4105 1
    3655     4112     4105 1
    3656     4113     4105 1
    3657     4114     4115 1
    3658     4116     4115 1
    3659     4117     4116 1
    3660     4118     4115 1
    3661     4119     4115 1
    3662     4120     4114 1
    3663     4121     4114 1
    3664     4122     4114 1
    3665     4123     4124 1
    3666     4125     4124 1
    3667     4126     4125 1
    3668     4127     4124 1
    3669     4128     4124 1
    3670     4129     4123 1
    3671     4130     4123 1
    3672     4131     4123 1
    3673     4132     4133 1
    3674     4134     4133 1
    3675     4135     4134 1
    3676     4136     4133 1
    3677     4137     4133 1
    3678     4138     4132 1
    3679     4139     4132 1
    3680     4140     4132 1
    3681     4141     4142 1
    3682     4143     4142 1
    3683     4144     4143 1
    3684     4145     4142 1
    3685     4146     4142 1
    3686     4147     4141 1
    3687     4148     4141 1
    3688     4149     4141 1
    3689     4150     4151 1
    3690     4152     4151 1
    3691     4153     4152 1
    3692     4154     4151 1
    3693     4155     4151 1
    3694     4156     4150 1
    3695     4157     4150 1
    3696     4158     4150 1
    3697     4159     4160 1
    3698     4161     4160 1
    3699     4162     4161 1
    3700     4163     4160 1
    3701     4164     4160 1
    3702     4165     4159 1
    3703     4166     4159 1
    3704     4167     4159 1
    3705     4168     4169 1
    3706     4170     4169 1
    3707     4171     4170 1
    3708     4172     4169 1
    3709     4173     4169 1
    3710     4174     4168 1
    3711     4175     4168 1
    3712     4176     4168 1
    3713     4177     4178 1
    3714     4179     4178 1
    3715     4180     4179 1
    3716     4181     4178 1
    3717     4182     4178 1
    3718     4183     4177 1
    3719     4184     4177 1
    3720     4185     4177 1
    3721     4186     4187 1
    3722     4188     4187 1
    3723     4189     4188 1
    3724     4190     4187 1
    3725     4191     4187 1
    3726     4192     4186 1
    3727     4193     4186 1
    3728     4194     4186 1
    3729     4195     4196 1
    3730     4197     4196 1
    3731     4198     4197 1
    3732     4199     4196 1
    3733     4200     4196 1
    3734     4201     4195 1
    3735     4202     4195 1
    3736     4203     4195 1
    3737     4204     4205 1
    3738     4206     4205 1
    3739     4207     4206 1
    3740     4208     4205 1
    3741     4209     4205 1
    3742     4210     4204 1
    3743     4211     4204 1
    3744     4212     4204 1
    3745     4213     4214 1
    3746     4215     4214 1
    3747     4216     4215 1
    3748     4217     4214 1
    3749     4218     4214 1
    3750     4219     4213 1
    3751     4220     4213 1
    3752     4221     4213 1
    3753     4222     4223 1
    3754     4224     4223 1
    3755     4225     4224 1
    3756     4226     4223 1
    3757     4227     4223 1
    3758     4228     4222 1
    3759     4229     4222 1
    3760     4230     4222 1
    3761     4231     4232 1
    3762     4233     4232 1
    3763     4234     4233 1
    3764     4235     4232 1
    3765     4236     4232 1
    3766     4237     4231 1
    3767     4238     4231 1
    3768     4239     4231 1
    3769     4240     4241 1
    3770     4242     4241 1
    3771     4243     4242 1
    3772     4244     4241 1
    3773     4245     4241 1
    3774     4246     4240 1
    3775     4247     4240 1
    3776     4248     4240 1
    3777     4249     4250 1
    3778     4251     4250 1
    3779     4252     4251 1
    3780     4253     4250 1
    3781     4254     4250 1
    3782     4255     4249 1
    3783     4256     4249 1
    3784     4257     4249 1
    3785     4258     4259 1
    3786     4260     4259 1
    3787     4261     4260 1
    3788     4262     4259 1
    3789     4263     4259 1
    3790     4264     4258 1
    3791     4265     4258 1
    3792     4266     4258 1
    3793     4267     4268 1
    3794     4269     4268 1
    3795     4270     4269 1
    3796     4271     4268 1
    3797     4272     4268 1
    3798     4273     4267 1
    3799     4274     4267 1
    3800     4275     4267 1
    3801     4276     4277 1
    3802     4278     4277 1
    3803     4279     4278 1
    3804     4280     4277 1
    3805     4281     4277 1
    3806     4282     4276 1
    3807     4283     4276 1
    3808     4284     4276 1
    3809     4285     4286 1
    3810     4287     4286 1
    3811     4288     4287 1
    3812     4289     4286 1
    3813     4290     4286 1
    3814     4291     4285 1
    3815     4292     4285 1
    3816     4293     4285 1
    3817     4294     4295 1
    3818     4296     4295 1
    3819     4297     4296 1
    3820     4298     4295 1
    3821     4299     4295 1
    3822     4300     4294 1
    3823     4301     4294 1
    3824     4302     4294 1
    3825     4303     4304 1
    3826     4305     4304 1
    3827     4306     4305 1
    3828     4307     4304 1
    3829     4308     4304 1
    3830     4309     4303 1
    3831     4310     4303 1
    3832     4311     4303 1
    3833     4312     4313 1
    3834     4314     4313 1
    3835     4315     4314 1
    3836     4316     4313 1
    3837     4317     4313 1
    3838     4318     4312 1
    3839     4319     4312 1
    3840     4320     4312 1
    3841     4321     4322 1
    3842     4323     4322 1
    3843     4324     4323 1
    3844     4325     4322 1
    3845     4326     4322 1
    3846     4327     4321 1
    3847     4328     4321 1
    3848     4329     4321 1
    3849     4330     4331 1
    3850     4332     4331 1
    3851     4333     4332 1
    3852     4334     4331 1
    3853     4335     4331 1
    3854     4336     4330 1
    3855     4337     4330 1
    3856     4338     4330 1
    3857     4339     4340 1
    3858     4341     4340 1
    3859     4342     4341 1
    3860     4343     4340 1
    3861     4344     4340 1
    3862     4345     4339 1
    3863     4346     4339 1
    3864     4347     4339 1
    3865     4348     4349 1
    3866     4350     4349 1
    3867     4351     4350 1
    3868     4352     4349 1
    3869     4353     4349 1
    3870     4354     4348 1
    3871     4355     4348 1
    3872     4356     4348 1
    3873     4357     4358 1
    3874     4359     4358 1
    3875     4360     4359 1
    3876     4361     4358 1
    3877     4362     4358 1
    3878     4363     4357 1
    3879     4364     4357 1
    3880     4365     4357 1
    3881     4366     4367 1
    3882     4368     4367 1
    3883     4369     4368 1
    3884     4370     4367 1
    3885     4371     4367 1
    3886     4372     4366 1
    3887     4373     4366 1
    3888     4374     4366 1
    3889     4375     4376 1
    3890     4377     4376 1
    3891     4378     4377 1
    3892     4379     4376 1
    3893     4380     4376 1
    3894     4381     4375 1
    3895     4382     4375 1
    3896     4383     4375 1
    3897     4384     4385 1
    3898     4386     4385 1
    3899     4387     4386 1
    3900     4388     4385 1
    3901     4389     4385 1
    3902     4390     4384 1
    3903     4391     4384 1
    3904     4392     4384 1
    3905     4393     4394 1
    3906     4395     4394 1
    3907     4396     4395 1
    3908     4397     4394 1
    3909     4398     4394 1
    3910     4399     4393 1
    3911     4400     4393 1
    3912     4401     4393 1
    3913     4402     4403 1
    3914     4404     4403 1
    3915     4405     4404 1
    3916     4406     4403 1
    3917     4407     4403 1
    3918     4408     4402 1
    3919     4409     4402 1
    3920     4410     4402 1
    3921     4411     4412 1
    3922     4413     4412 1
    3923     4414     4413 1
    3924     4415     4412 1
    3925     4416     4412 1
    3926     4417     4411 1
    3927     4418     4411 1
    3928     4419     4411 1
    3929     4420     4421 1
    3930     4422     4421 1
    3931     4423     4422 1
    3932     4424     4421 1
    3933     4425     4421 1
    3934     4426     4420 1
    3935     4427     4420 1
    3936     4428     4420 1
    3937     4429     4430 1
    3938     4431     4430 1
    3939     4432     4431 1
    3940     4433     4430 1
    3941     4434     4430 1
    3942     4435     4429 1
    3943     4436     4429 1
    3944     4437     4429 1
    3945     4438     4439 1
    3946     4440     4439 1
    3947     4441     4440 1
    3948     4442     4439 1
    3949     4443     4439 1
    3950     4444     4438 1
    3951     4445     4438 1
    3952     4446     4438 1
    3953     4447     4448 1
    3954     4449     4448 1
    3955     4450     4449 1
    3956     4451     4448 1
    3957     4452     4448 1
    3958     4453     4447 1
    3959     4454     4447 1
    3960     4455     4447 1
    3961     4456     4457 1
    3962     4458     4457 1
    3963     4459     4458 1
    3964     4460     4457 1
    3965     4461     4457 1
    3966     4462     4456 1
    3967     4463     4456 1
    3968     4464     4456 1
    3969     4465     4466 1
    3970     4467     4466 1
    3971     4468     4467 1
    3972     4469     4466 1
    3973     4470     4466 1
    3974     4471     4465 1
    3975     4472     4465 1
    3976     4473     4465 1
    3977     4474     4475 1
    3978     4476     4475 1
    3979     4477     4476 1
    3980     4478     4475 1
    3981     4479     4475 1
    3982     4480     4474 1
    3983     4481     4474 1
    3984     4482     4474 1
    3985     4483     4484 1
    3986     4485     4484 1
    3987     4486     4485 1
    3988     4487     4484 1
    3989     4488     4484 1
    3990     4489     4483 1
    3991     4490     4483 1
    3992     4491     4483 1
    3993     4492     4493 1
    3994     4494     4493 1
    3995     4495     4494 1
    3996     4496     4493 1
    3997     4497     4493 1
    3998     4498     4492 1
    3999     4499     4492 1
    4000     4500     4492 1
@<TRIPOS>SUBSTRUCTURE
       1 RES             1 RESIDUE    0 1    ROOT      0
