@<TRIPOS>MOLECULE
RES
3300 2200 1 0 1
SMALL
USER_CHARGES
@<TRIPOS>CRYSIN
   32.0700    32.0700    32.0700    90.0000    90.0000    90.0000  1  1
@<TRIPOS>ATOM
       1 OW          13.5590    26.1977    25.4535 opls-116      1 RES       -0.847600
       2 HW1         14.5036    26.5114    25.5494 opls-117      1 RES        0.423800
       3 HW2         12.9405    26.9817    25.5053 opls-117      1 RES        0.423800
       4 OW          28.5674     7.2130    22.3958 opls-116      1 RES       -0.847600
       5 HW1         28.2501     8.1324    22.6283 opls-117      1 RES        0.423800
       6 HW2         29.4916     7.2651    22.0175 opls-117      1 RES        0.423800
       7 OW          30.0661    21.0649    14.0700 opls-116      1 RES       -0.847600
       8 HW1         29.1732    20.6684    14.2833 opls-117      1 RES        0.423800
       9 HW2         30.1005    22.0072    14.4030 opls-117      1 RES        0.423800
      10 OW          11.4075    11.1299     8.4830 opls-116      1 RES       -0.847600
      11 HW1         11.2982    10.1700     8.2248 opls-117      1 RES        0.423800
      12 HW2         10.9251    11.7089     7.8256 opls-117      1 RES        0.423800
      13 OW          22.4996     9.9702    19.0120 opls-116      1 RES       -0.847600
      14 HW1         22.7972    10.1380    19.9519 opls-117      1 RES        0.423800
      15 HW2         23.2112    10.2730    18.3780 opls-117      1 RES        0.423800
      16 OW          25.2506     2.9835    18.6026 opls-116      1 RES       -0.847600
      17 HW1         25.3388     2.4972    19.4719 opls-117      1 RES        0.423800
      18 HW2         25.8159     3.8081    18.6232 opls-117      1 RES        0.423800
      19 OW          14.1764     5.2156     4.9860 opls-116      1 RES       -0.847600
      20 HW1         15.0519     5.6307     5.2334 opls-117      1 RES        0.423800
      21 HW2         14.2676     4.2198     4.9868 opls-117      1 RES        0.423800
      22 OW           6.6817    16.3650    23.3674 opls-116      1 RES       -0.847600
      23 HW1          5.7163    16.4864    23.1365 opls-117      1 RES        0.423800
      24 HW2          7.1578    17.2401    23.2802 opls-117      1 RES        0.423800
      25 OW          10.9283    23.5995     9.5428 opls-116      1 RES       -0.847600
      26 HW1         11.1343    22.6286     9.6656 opls-117      1 RES        0.423800
      27 HW2         11.7664    24.1343     9.6506 opls-117      1 RES        0.423800
      28 OW           3.4711    25.1313    25.4949 opls-116      1 RES       -0.847600
      29 HW1          3.6433    25.3729    24.5399 opls-117      1 RES        0.423800
      30 HW2          2.6334    24.5887    25.5556 opls-117      1 RES        0.423800
      31 OW           4.6234    11.0684    27.4199 opls-116      1 RES       -0.847600
      32 HW1          5.1467    10.2645    27.7028 opls-117      1 RES        0.423800
      33 HW2          3.6648    10.8141    27.2925 opls-117      1 RES        0.423800
      34 OW           7.6675     2.4207     3.0209 opls-116      1 RES       -0.847600
      35 HW1          6.7913     2.0000     2.7856 opls-117      1 RES        0.423800
      36 HW2          8.0261     2.0000     3.8542 opls-117      1 RES        0.423800
      37 OW          13.7403    10.0234    22.4070 opls-116      1 RES       -0.847600
      38 HW1         13.6565    11.0155    22.5003 opls-117      1 RES        0.423800
      39 HW2         12.8294     9.6107    22.4043 opls-117      1 RES        0.423800
      40 OW          28.1851    24.7020    18.6158 opls-116      1 RES       -0.847600
      41 HW1         27.3816    24.1175    18.7292 opls-117      1 RES        0.423800
      42 HW2         27.8919    25.6467    18.4691 opls-117      1 RES        0.423800
      43 OW          13.1042     5.9246    15.8879 opls-116      1 RES       -0.847600
      44 HW1         13.0752     5.2398    15.1596 opls-117      1 RES        0.423800
      45 HW2         13.5693     5.5424    16.6864 opls-117      1 RES        0.423800
      46 OW          10.7461     7.2484    10.4099 opls-116      1 RES       -0.847600
      47 HW1         11.6653     7.6356    10.3374 opls-117      1 RES        0.423800
      48 HW2         10.4579     7.2511    11.3674 opls-117      1 RES        0.423800
      49 OW          28.9456    25.8187    27.8330 opls-116      1 RES       -0.847600
      50 HW1         29.8878    25.4849    27.8620 opls-117      1 RES        0.423800
      51 HW2         28.3167    25.0412    27.8224 opls-117      1 RES        0.423800
      52 OW          15.8295    23.7754    25.7707 opls-116      1 RES       -0.847600
      53 HW1         16.5165    24.4989    25.7030 opls-117      1 RES        0.423800
      54 HW2         14.9176    24.1841    25.8070 opls-117      1 RES        0.423800
      55 OW           5.3783    15.8036    21.0729 opls-116      1 RES       -0.847600
      56 HW1          5.6779    16.5755    20.5122 opls-117      1 RES        0.423800
      57 HW2          4.3804    15.8066    21.1383 opls-117      1 RES        0.423800
      58 OW           2.5892    29.3454    10.2176 opls-116      1 RES       -0.847600
      59 HW1          1.9992    29.7894    10.8919 opls-117      1 RES        0.423800
      60 HW2          3.1133    30.0398     9.7246 opls-117      1 RES        0.423800
      61 OW          17.4969     5.9565     2.7130 opls-116      1 RES       -0.847600
      62 HW1         17.0064     6.4142     3.4546 opls-117      1 RES        0.423800
      63 HW2         17.7476     6.6276     2.0152 opls-117      1 RES        0.423800
      64 OW           4.7553    11.5939    20.7927 opls-116      1 RES       -0.847600
      65 HW1          4.4623    12.2878    20.1350 opls-117      1 RES        0.423800
      66 HW2          5.7016    11.3326    20.6023 opls-117      1 RES        0.423800
      67 OW           2.8483     2.0060    20.7071 opls-116      1 RES       -0.847600
      68 HW1          1.9976     1.9988    20.1815 opls-117      1 RES        0.423800
      69 HW2          3.4272     2.7589    20.3939 opls-117      1 RES        0.423800
      70 OW           2.9553     4.5669    28.2983 opls-116      1 RES       -0.847600
      71 HW1          2.0266     4.2659    28.5151 opls-117      1 RES        0.423800
      72 HW2          2.9239     5.2363    27.5561 opls-117      1 RES        0.423800
      73 OW           8.4875    27.7184    11.6992 opls-116      1 RES       -0.847600
      74 HW1          8.9025    28.5342    11.2964 opls-117      1 RES        0.423800
      75 HW2          9.0117    26.9104    11.4302 opls-117      1 RES        0.423800
      76 OW           4.1253     6.2767    11.3221 opls-116      1 RES       -0.847600
      77 HW1          4.3029     7.0666    10.7351 opls-117      1 RES        0.423800
      78 HW2          4.9828     5.9672    11.7330 opls-117      1 RES        0.423800
      79 OW          19.0298    22.2170     7.4904 opls-116      1 RES       -0.847600
      80 HW1         18.7329    23.0497     7.9579 opls-117      1 RES        0.423800
      81 HW2         19.2254    21.5067     8.1666 opls-117      1 RES        0.423800
      82 OW          15.9760    30.0753    22.9814 opls-116      1 RES       -0.847600
      83 HW1         15.6229    29.1569    23.1596 opls-117      1 RES        0.423800
      84 HW2         16.7685    30.0158    22.3745 opls-117      1 RES        0.423800
      85 OW          26.8854     7.0677     7.4366 opls-116      1 RES       -0.847600
      86 HW1         27.4337     6.3538     7.8721 opls-117      1 RES        0.423800
      87 HW2         26.6345     7.7568     8.1165 opls-117      1 RES        0.423800
      88 OW           1.9959    23.5089    23.5117 opls-116      1 RES       -0.847600
      89 HW1          2.1784    24.4383    23.1907 opls-117      1 RES        0.423800
      90 HW2          2.8253    23.1289    23.9213 opls-117      1 RES        0.423800
      91 OW           7.3795    18.8871    13.5897 opls-116      1 RES       -0.847600
      92 HW1          6.7930    19.6041    13.9666 opls-117      1 RES        0.423800
      93 HW2          8.2737    19.2730    13.3627 opls-117      1 RES        0.423800
      94 OW          13.6661     7.0729     8.3275 opls-116      1 RES       -0.847600
      95 HW1         14.4649     6.4723     8.2921 opls-117      1 RES        0.423800
      96 HW2         13.5636     7.5433     7.4510 opls-117      1 RES        0.423800
      97 OW           8.3950    12.6195    19.8894 opls-116      1 RES       -0.847600
      98 HW1          8.3362    13.4684    19.3642 opls-117      1 RES        0.423800
      99 HW2          7.6753    12.6065    20.5835 opls-117      1 RES        0.423800
     100 OW           2.7860    27.3892    27.3301 opls-116      1 RES       -0.847600
     101 HW1          2.3339    27.1013    28.1743 opls-117      1 RES        0.423800
     102 HW2          3.7777    27.3519    27.4536 opls-117      1 RES        0.423800
     103 OW          10.2760    22.1714    12.7589 opls-116      1 RES       -0.847600
     104 HW1          9.4829    22.6404    13.1476 opls-117      1 RES        0.423800
     105 HW2         10.5083    22.5837    11.8779 opls-117      1 RES        0.423800
     106 OW           6.4507    11.0564    29.4496 opls-116      1 RES       -0.847600
     107 HW1          5.5750    11.1431    29.9247 opls-117      1 RES        0.423800
     108 HW2          7.1934    11.3038    30.0718 opls-117      1 RES        0.423800
     109 OW           8.8014     7.3829    23.4180 opls-116      1 RES       -0.847600
     110 HW1          8.9285     6.7862    24.2103 opls-117      1 RES        0.423800
     111 HW2          8.8925     8.3375    23.7016 opls-117      1 RES        0.423800
     112 OW          11.0540    17.0946     9.1066 opls-116      1 RES       -0.847600
     113 HW1         10.0727    17.2695     9.0256 opls-117      1 RES        0.423800
     114 HW2         11.2304    16.1187     8.9778 opls-117      1 RES        0.423800
     115 OW          22.6855    13.5281     5.8383 opls-116      1 RES       -0.847600
     116 HW1         22.3480    14.1445     5.1268 opls-117      1 RES        0.423800
     117 HW2         22.0098    13.4652     6.5727 opls-117      1 RES        0.423800
     118 OW           5.4395     9.4055     9.9346 opls-116      1 RES       -0.847600
     119 HW1          6.1154     8.6970    10.1376 opls-117      1 RES        0.423800
     120 HW2          4.5738     8.9762     9.6771 opls-117      1 RES        0.423800
     121 OW          13.9009     2.5095    19.8238 opls-116      1 RES       -0.847600
     122 HW1         13.0483     1.9926    19.7465 opls-117      1 RES        0.423800
     123 HW2         14.5986     2.0905    19.2428 opls-117      1 RES        0.423800
     124 OW          15.6293    18.3427    17.1597 opls-116      1 RES       -0.847600
     125 HW1         15.9497    18.7968    17.9910 opls-117      1 RES        0.423800
     126 HW2         14.8675    18.8600    16.7697 opls-117      1 RES        0.423800
     127 OW           6.6353     5.6007    13.1378 opls-116      1 RES       -0.847600
     128 HW1          6.5610     5.7579    14.1226 opls-117      1 RES        0.423800
     129 HW2          6.9244     6.4448    12.6863 opls-117      1 RES        0.423800
     130 OW          21.0925     5.4863     2.9218 opls-116      1 RES       -0.847600
     131 HW1         20.9080     4.6771     3.4795 opls-117      1 RES        0.423800
     132 HW2         20.2495     6.0122     2.8084 opls-117      1 RES        0.423800
     133 OW          17.2249     9.2725    19.6184 opls-116      1 RES       -0.847600
     134 HW1         17.4721     9.7471    18.7736 opls-117      1 RES        0.423800
     135 HW2         16.3976     9.6832    20.0016 opls-117      1 RES        0.423800
     136 OW          21.0220    16.6309     8.6224 opls-116      1 RES       -0.847600
     137 HW1         21.3315    17.5190     8.9623 opls-117      1 RES        0.423800
     138 HW2         21.8101    16.0274     8.5010 opls-117      1 RES        0.423800
     139 OW           4.3211     4.5964    14.5510 opls-116      1 RES       -0.847600
     140 HW1          4.6502     4.7882    13.6263 opls-117      1 RES        0.423800
     141 HW2          4.6974     5.2717    15.1854 opls-117      1 RES        0.423800
     142 OW          15.5030    17.2452    26.8108 opls-116      1 RES       -0.847600
     143 HW1         14.5042    17.2885    26.7881 opls-117      1 RES        0.423800
     144 HW2         15.8789    18.1668    26.7142 opls-117      1 RES        0.423800
     145 OW          24.2447    23.0188    25.9369 opls-116      1 RES       -0.847600
     146 HW1         23.2943    23.3182    26.0215 opls-117      1 RES        0.423800
     147 HW2         24.2785    22.0196    25.9122 opls-117      1 RES        0.423800
     148 OW          23.9069    19.9658    25.0666 opls-116      1 RES       -0.847600
     149 HW1         24.6868    20.3331    24.5599 opls-117      1 RES        0.423800
     150 HW2         23.6094    19.1090    24.6454 opls-117      1 RES        0.423800
     151 OW          22.2838    12.4825    22.0587 opls-116      1 RES       -0.847600
     152 HW1         21.7179    11.7970    22.5168 opls-117      1 RES        0.423800
     153 HW2         22.9574    12.8435    22.7037 opls-117      1 RES        0.423800
     154 OW          29.1685     6.6289     2.6392 opls-116      1 RES       -0.847600
     155 HW1         29.2424     7.4263     2.0403 opls-117      1 RES        0.423800
     156 HW2         30.0640     6.4251     3.0348 opls-117      1 RES        0.423800
     157 OW          19.6306    19.0400     7.7346 opls-116      1 RES       -0.847600
     158 HW1         20.5116    19.3948     8.0476 opls-117      1 RES        0.423800
     159 HW2         19.7029    18.0541     7.5838 opls-117      1 RES        0.423800
     160 OW          10.0873    10.2230    22.3275 opls-116      1 RES       -0.847600
     161 HW1         10.5228    10.9242    21.7629 opls-117      1 RES        0.423800
     162 HW2         10.6012     9.3684    22.2529 opls-117      1 RES        0.423800
     163 OW          19.6675     3.9202    15.1842 opls-116      1 RES       -0.847600
     164 HW1         19.6455     3.3264    14.3799 opls-117      1 RES        0.423800
     165 HW2         20.0628     3.4218    15.9557 opls-117      1 RES        0.423800
     166 OW           2.0207    14.7175    26.2101 opls-116      1 RES       -0.847600
     167 HW1          2.9698    15.0325    26.2173 opls-117      1 RES        0.423800
     168 HW2          1.9994    13.7215    26.2966 opls-117      1 RES        0.423800
     169 OW          28.9436    25.1865    16.4032 opls-116      1 RES       -0.847600
     170 HW1         28.8813    26.1696    16.5752 opls-117      1 RES        0.423800
     171 HW2         29.8285    24.9763    15.9875 opls-117      1 RES        0.423800
     172 OW          28.8653    27.4022    22.5140 opls-116      1 RES       -0.847600
     173 HW1         28.0565    27.9600    22.7002 opls-117      1 RES        0.423800
     174 HW2         29.5919    27.9816    22.1447 opls-117      1 RES        0.423800
     175 OW          22.8516     8.5044     6.9562 opls-116      1 RES       -0.847600
     176 HW1         22.5581     9.4442     6.7812 opls-117      1 RES        0.423800
     177 HW2         22.0685     7.9617     7.2599 opls-117      1 RES        0.423800
     178 OW          25.3570    22.7209    14.5791 opls-116      1 RES       -0.847600
     179 HW1         24.4599    23.1338    14.4220 opls-117      1 RES        0.423800
     180 HW2         26.0677    23.4157    14.4689 opls-117      1 RES        0.423800
     181 OW          15.4251    25.2377    23.9436 opls-116      1 RES       -0.847600
     182 HW1         14.4539    25.0389    23.8117 opls-117      1 RES        0.423800
     183 HW2         15.6177    26.1722    23.6442 opls-117      1 RES        0.423800
     184 OW          20.0886    26.9749    13.1308 opls-116      1 RES       -0.847600
     185 HW1         20.0839    27.0502    14.1279 opls-117      1 RES        0.423800
     186 HW2         20.4880    26.0976    12.8646 opls-117      1 RES        0.423800
     187 OW           6.2374    18.3417     4.6862 opls-116      1 RES       -0.847600
     188 HW1          6.0939    17.3541     4.7486 opls-117      1 RES        0.423800
     189 HW2          7.0512    18.5262     4.1351 opls-117      1 RES        0.423800
     190 OW           9.6747    23.2230    24.1587 opls-116      1 RES       -0.847600
     191 HW1          9.5459    22.5978    23.3890 opls-117      1 RES        0.423800
     192 HW2          9.0381    23.9897    24.0755 opls-117      1 RES        0.423800
     193 OW          17.6539    15.1451    15.7693 opls-116      1 RES       -0.847600
     194 HW1         17.9812    14.4306    16.3876 opls-117      1 RES        0.423800
     195 HW2         16.6539    15.1494    15.7645 opls-117      1 RES        0.423800
     196 OW          15.0291     5.9014    19.5864 opls-116      1 RES       -0.847600
     197 HW1         14.8580     4.9309    19.7559 opls-117      1 RES        0.423800
     198 HW2         14.5510     6.1839    18.7547 opls-117      1 RES        0.423800
     199 OW           9.6209    24.7980    11.3688 opls-116      1 RES       -0.847600
     200 HW1         10.3906    25.2690    10.9377 opls-117      1 RES        0.423800
     201 HW2          9.1480    24.2394    10.6874 opls-117      1 RES        0.423800
     202 OW           2.8972    21.4814    11.7591 opls-116      1 RES       -0.847600
     203 HW1          3.6208    21.3108    11.0902 opls-117      1 RES        0.423800
     204 HW2          2.4242    22.3319    11.5289 opls-117      1 RES        0.423800
     205 OW          11.5415    14.1765    19.4486 opls-116      1 RES       -0.847600
     206 HW1         11.3789    15.1466    19.2681 opls-117      1 RES        0.423800
     207 HW2         12.1226    14.0807    20.2568 opls-117      1 RES        0.423800
     208 OW          26.9375    23.4134    22.4325 opls-116      1 RES       -0.847600
     209 HW1         27.1911    23.5674    23.3874 opls-117      1 RES        0.423800
     210 HW2         26.2159    24.0547    22.1717 opls-117      1 RES        0.423800
     211 OW          27.8022    15.8913     7.9796 opls-116      1 RES       -0.847600
     212 HW1         28.1473    15.0874     8.4640 opls-117      1 RES        0.423800
     213 HW2         28.5695    16.3994     7.5882 opls-117      1 RES        0.423800
     214 OW          29.5073     7.0295     9.6195 opls-116      1 RES       -0.847600
     215 HW1         29.7044     7.9960     9.7836 opls-117      1 RES        0.423800
     216 HW2         28.5465     6.8453     9.8267 opls-117      1 RES        0.423800
     217 OW           7.3319    13.3624    16.7225 opls-116      1 RES       -0.847600
     218 HW1          7.3948    14.0362    17.4587 opls-117      1 RES        0.423800
     219 HW2          6.7295    12.6158    17.0046 opls-117      1 RES        0.423800
     220 OW          21.9337    21.1436    26.3827 opls-116      1 RES       -0.847600
     221 HW1         22.4899    20.3760    26.7012 opls-117      1 RES        0.423800
     222 HW2         20.9693    20.8790    26.3829 opls-117      1 RES        0.423800
     223 OW          29.4556    12.3966     3.1797 opls-116      1 RES       -0.847600
     224 HW1         30.0716    13.1638     3.3586 opls-117      1 RES        0.423800
     225 HW2         29.9795    11.5450     3.1649 opls-117      1 RES        0.423800
     226 OW          13.8979    20.0213    22.4162 opls-116      1 RES       -0.847600
     227 HW1         13.4055    19.1637    22.2679 opls-117      1 RES        0.423800
     228 HW2         13.4291    20.7623    21.9354 opls-117      1 RES        0.423800
     229 OW          11.4951     4.0331    16.1000 opls-116      1 RES       -0.847600
     230 HW1         11.8308     4.2368    17.0196 opls-117      1 RES        0.423800
     231 HW2         10.6368     3.5239    16.1636 opls-117      1 RES        0.423800
     232 OW          19.7474    27.4799    26.8282 opls-116      1 RES       -0.847600
     233 HW1         19.7905    28.4507    26.5923 opls-117      1 RES        0.423800
     234 HW2         18.7913    27.1925    26.8839 opls-117      1 RES        0.423800
     235 OW          12.2859    18.8709     8.7037 opls-116      1 RES       -0.847600
     236 HW1         11.8450    19.6911     8.3391 opls-117      1 RES        0.423800
     237 HW2         12.8034    18.4195     7.9768 opls-117      1 RES        0.423800
     238 OW          25.0540    23.6857    24.0030 opls-116      1 RES       -0.847600
     239 HW1         24.1677    23.2940    23.7560 opls-117      1 RES        0.423800
     240 HW2         25.0173    24.6804    23.9068 opls-117      1 RES        0.423800
     241 OW          10.8094     8.8632     2.7159 opls-116      1 RES       -0.847600
     242 HW1         10.7432     7.8924     2.4854 opls-117      1 RES        0.423800
     243 HW2         10.2879     9.0441     3.5498 opls-117      1 RES        0.423800
     244 OW          27.7757    16.5469    28.6549 opls-116      1 RES       -0.847600
     245 HW1         27.2737    16.9232    29.4337 opls-117      1 RES        0.423800
     246 HW2         27.1982    15.8877    28.1732 opls-117      1 RES        0.423800
     247 OW           2.2756    22.7346    16.5361 opls-116      1 RES       -0.847600
     248 HW1          1.9892    22.5212    17.4701 opls-117      1 RES        0.423800
     249 HW2          1.9825    22.0018    15.9219 opls-117      1 RES        0.423800
     250 OW          10.4730    19.7055    17.3377 opls-116      1 RES       -0.847600
     251 HW1         10.1280    20.6421    17.3991 opls-117      1 RES        0.423800
     252 HW2         11.4599    19.7235    17.1776 opls-117      1 RES        0.423800
     253 OW          16.8927    11.5693    28.4967 opls-116      1 RES       -0.847600
     254 HW1         16.4407    12.4369    28.7036 opls-117      1 RES        0.423800
     255 HW2         17.3999    11.2577    29.3003 opls-117      1 RES        0.423800
     256 OW           4.7362    11.8183    15.1404 opls-116      1 RES       -0.847600
     257 HW1          5.3817    12.5716    15.2666 opls-117      1 RES        0.423800
     258 HW2          3.8010    12.1692    15.1877 opls-117      1 RES        0.423800
     259 OW          21.3306    24.7120    25.0677 opls-116      1 RES       -0.847600
     260 HW1         20.7100    24.2279    24.4509 opls-117      1 RES        0.423800
     261 HW2         20.7986    25.2603    25.7130 opls-117      1 RES        0.423800
     262 OW           4.9982    12.6849     6.0658 opls-116      1 RES       -0.847600
     263 HW1          5.5209    13.5180     6.2465 opls-117      1 RES        0.423800
     264 HW2          4.2239    12.6337     6.6966 opls-117      1 RES        0.423800
     265 OW           8.9002    12.8502     7.3261 opls-116      1 RES       -0.847600
     266 HW1          8.0649    13.4000     7.3177 opls-117      1 RES        0.423800
     267 HW2          8.6667    11.8918     7.4899 opls-117      1 RES        0.423800
     268 OW          12.6153     2.9826     4.2239 opls-116      1 RES       -0.847600
     269 HW1         12.3332     2.0293     4.3314 opls-117      1 RES        0.423800
     270 HW2         12.0095     3.5719     4.7586 opls-117      1 RES        0.423800
     271 OW           3.6652    18.4932    26.9277 opls-116      1 RES       -0.847600
     272 HW1          3.6424    17.7576    26.2507 opls-117      1 RES        0.423800
     273 HW2          4.5156    18.4384    27.4510 opls-117      1 RES        0.423800
     274 OW          25.0273    16.8653    15.3660 opls-116      1 RES       -0.847600
     275 HW1         24.4018    17.6308    15.2152 opls-117      1 RES        0.423800
     276 HW2         25.3447    16.5155    14.4846 opls-117      1 RES        0.423800
     277 OW           6.0505    14.1269    19.2524 opls-116      1 RES       -0.847600
     278 HW1          6.1796    13.1530    19.0658 opls-117      1 RES        0.423800
     279 HW2          5.0958    14.2957    19.4974 opls-117      1 RES        0.423800
     280 OW           3.0281    21.0645    18.7491 opls-116      1 RES       -0.847600
     281 HW1          2.1649    20.6318    19.0089 opls-117      1 RES        0.423800
     282 HW2          3.1347    21.9232    19.2503 opls-117      1 RES        0.423800
     283 OW           2.5489    11.4287    17.1089 opls-116      1 RES       -0.847600
     284 HW1          1.9877    11.6156    16.3026 opls-117      1 RES        0.423800
     285 HW2          2.0064    10.9286    17.7839 opls-117      1 RES        0.423800
     286 OW          22.6289    27.9597     7.7038 opls-116      1 RES       -0.847600
     287 HW1         23.0156    28.6741     8.2869 opls-117      1 RES        0.423800
     288 HW2         23.2137    27.8300     6.9031 opls-117      1 RES        0.423800
     289 OW          29.1887    18.4711    14.3796 opls-116      1 RES       -0.847600
     290 HW1         30.0701    18.0308    14.5512 opls-117      1 RES        0.423800
     291 HW2         28.6628    17.9221    13.7300 opls-117      1 RES        0.423800
     292 OW          16.1890    10.5593    22.6290 opls-116      1 RES       -0.847600
     293 HW1         17.0287    10.2717    22.1683 opls-117      1 RES        0.423800
     294 HW2         15.8030    11.3507    22.1550 opls-117      1 RES        0.423800
     295 OW          25.1117    15.8050    29.0160 opls-116      1 RES       -0.847600
     296 HW1         25.2252    16.7312    28.6564 opls-117      1 RES        0.423800
     297 HW2         25.1179    15.8324    30.0156 opls-117      1 RES        0.423800
     298 OW           2.6080    16.1579     4.0614 opls-116      1 RES       -0.847600
     299 HW1          3.5603    15.8597     4.1267 opls-117      1 RES        0.423800
     300 HW2          2.0222    15.3665     3.8864 opls-117      1 RES        0.423800
     301 OW          25.7464     3.7635    21.2240 opls-116      1 RES       -0.847600
     302 HW1         25.9941     4.6264    21.6644 opls-117      1 RES        0.423800
     303 HW2         26.5487     3.1680    21.1825 opls-117      1 RES        0.423800
     304 OW          27.3304    27.4784    20.6802 opls-116      1 RES       -0.847600
     305 HW1         27.1058    27.2702    19.7283 opls-117      1 RES        0.423800
     306 HW2         26.5205    27.3430    21.2510 opls-117      1 RES        0.423800
     307 OW          23.3140    12.6540     8.1485 opls-116      1 RES       -0.847600
     308 HW1         22.6606    11.9046     8.2560 opls-117      1 RES        0.423800
     309 HW2         24.1372    12.3157     7.6925 opls-117      1 RES        0.423800
     310 OW          16.9954    28.1322    29.1881 opls-116      1 RES       -0.847600
     311 HW1         17.6977    28.1944    29.8973 opls-117      1 RES        0.423800
     312 HW2         17.1681    27.3294    28.6175 opls-117      1 RES        0.423800
     313 OW          23.8650    25.7061    21.7916 opls-116      1 RES       -0.847600
     314 HW1         23.2228    26.4641    21.6770 opls-117      1 RES        0.423800
     315 HW2         24.8006    26.0434    21.6876 opls-117      1 RES        0.423800
     316 OW          18.7717     3.6766    23.3624 opls-116      1 RES       -0.847600
     317 HW1         18.9567     4.6594    23.3588 opls-117      1 RES        0.423800
     318 HW2         19.6366     3.1746    23.3645 opls-117      1 RES        0.423800
     319 OW          19.2242    10.5161    21.1831 opls-116      1 RES       -0.847600
     320 HW1         19.6429    10.1113    21.9960 opls-117      1 RES        0.423800
     321 HW2         19.5574    11.4519    21.0674 opls-117      1 RES        0.423800
     322 OW           4.7091    23.0914    15.8473 opls-116      1 RES       -0.847600
     323 HW1          5.5701    23.1454    15.3415 opls-117      1 RES        0.423800
     324 HW2          3.9509    23.3319    15.2413 opls-117      1 RES        0.423800
     325 OW          21.4209     8.9482    23.8953 opls-116      1 RES       -0.847600
     326 HW1         20.6121     8.4501    23.5827 opls-117      1 RES        0.423800
     327 HW2         22.1958     8.7319    23.3013 opls-117      1 RES        0.423800
     328 OW          19.1393    29.0163    18.0362 opls-116      1 RES       -0.847600
     329 HW1         20.1392    29.0297    18.0224 opls-117      1 RES        0.423800
     330 HW2         18.7885    29.8107    17.5403 opls-117      1 RES        0.423800
     331 OW          24.9227     6.0107    18.5988 opls-116      1 RES       -0.847600
     332 HW1         24.6442     5.4959    19.4096 opls-117      1 RES        0.423800
     333 HW2         25.8475     6.3672    18.7317 opls-117      1 RES        0.423800
     334 OW          16.5082    17.3245    12.0332 opls-116      1 RES       -0.847600
     335 HW1         16.2915    17.0690    11.0910 opls-117      1 RES        0.423800
     336 HW2         16.1103    18.2194    12.2357 opls-117      1 RES        0.423800
     337 OW           7.6344     2.5683    20.0551 opls-116      1 RES       -0.847600
     338 HW1          7.7307     3.5631    20.0892 opls-117      1 RES        0.423800
     339 HW2          6.6641     2.3281    20.0272 opls-117      1 RES        0.423800
     340 OW          16.7887    11.7594    15.6880 opls-116      1 RES       -0.847600
     341 HW1         15.8073    11.9336    15.7684 opls-117      1 RES        0.423800
     342 HW2         17.2547    12.5994    15.4099 opls-117      1 RES        0.423800
     343 OW          11.8623    21.8516    16.7927 opls-116      1 RES       -0.847600
     344 HW1         11.0960    22.3221    16.3551 opls-117      1 RES        0.423800
     345 HW2         11.8203    21.9944    17.7816 opls-117      1 RES        0.423800
     346 OW          21.3572     9.6990    29.9234 opls-116      1 RES       -0.847600
     347 HW1         21.4470     8.7140    30.0706 opls-117      1 RES        0.423800
     348 HW2         22.2495    10.0834    29.6866 opls-117      1 RES        0.423800
     349 OW          29.1252    18.4576    16.6409 opls-116      1 RES       -0.847600
     350 HW1         29.1041    19.4182    16.3635 opls-117      1 RES        0.423800
     351 HW2         30.0682    18.1876    16.8357 opls-117      1 RES        0.423800
     352 OW          19.8909    15.9035    13.8648 opls-116      1 RES       -0.847600
     353 HW1         20.8453    15.9911    13.5793 opls-117      1 RES        0.423800
     354 HW2         19.6600    14.9355    13.9633 opls-117      1 RES        0.423800
     355 OW          22.8049    29.2681    29.2424 opls-116      1 RES       -0.847600
     356 HW1         22.2479    29.2009    30.0702 opls-117      1 RES        0.423800
     357 HW2         23.5113    29.9640    29.3715 opls-117      1 RES        0.423800
     358 OW          19.3360    17.0920    23.7459 opls-116      1 RES       -0.847600
     359 HW1         20.3163    17.2878    23.7196 opls-117      1 RES        0.423800
     360 HW2         18.8254    17.9511    23.7822 opls-117      1 RES        0.423800
     361 OW           8.4084    23.2722     4.6731 opls-116      1 RES       -0.847600
     362 HW1          7.9209    23.8006     3.9780 opls-117      1 RES        0.423800
     363 HW2          9.1592    23.8199     5.0424 opls-117      1 RES        0.423800
     364 OW          11.0714    29.4906     9.3103 opls-116      1 RES       -0.847600
     365 HW1         11.8600    30.0709     9.5135 opls-117      1 RES        0.423800
     366 HW2         10.2622    30.0627     9.1768 opls-117      1 RES        0.423800
     367 OW          11.7707    27.9798    10.7478 opls-116      1 RES       -0.847600
     368 HW1         12.1405    27.0756    10.5343 opls-117      1 RES        0.423800
     369 HW2         12.5177    28.5934    11.0040 opls-117      1 RES        0.423800
     370 OW           2.5963    22.4409     8.6795 opls-116      1 RES       -0.847600
     371 HW1          2.0451    21.8360     8.1048 opls-117      1 RES        0.423800
     372 HW2          1.9978    23.0860     9.1546 opls-117      1 RES        0.423800
     373 OW          15.1626    13.9656    17.4732 opls-116      1 RES       -0.847600
     374 HW1         14.8190    13.8900    16.5371 opls-117      1 RES        0.423800
     375 HW2         16.1566    13.8561    17.4732 opls-117      1 RES        0.423800
     376 OW          11.0647     9.7705    10.7060 opls-116      1 RES       -0.847600
     377 HW1         10.1614     9.3429    10.7430 opls-117      1 RES        0.423800
     378 HW2         10.9620    10.7649    10.6832 opls-117      1 RES        0.423800
     379 OW          18.3199    19.9172    13.6252 opls-116      1 RES       -0.847600
     380 HW1         18.3036    20.9161    13.6688 opls-117      1 RES        0.423800
     381 HW2         17.3834    19.5673    13.6467 opls-117      1 RES        0.423800
     382 OW           7.0026    14.3084    10.2357 opls-116      1 RES       -0.847600
     383 HW1          7.0498    15.0975     9.6232 opls-117      1 RES        0.423800
     384 HW2          7.6926    13.6362     9.9671 opls-117      1 RES        0.423800
     385 OW          12.7383     2.0664     9.0569 opls-116      1 RES       -0.847600
     386 HW1         13.4347     1.9831     8.3441 opls-117      1 RES        0.423800
     387 HW2         12.0551     2.7413     8.7782 opls-117      1 RES        0.423800
     388 OW          27.4765    21.2132    24.9966 opls-116      1 RES       -0.847600
     389 HW1         28.0869    20.9040    25.7259 opls-117      1 RES        0.423800
     390 HW2         26.5369    21.2413    25.3378 opls-117      1 RES        0.423800
     391 OW           5.6441     7.7858    27.8987 opls-116      1 RES       -0.847600
     392 HW1          5.2512     6.9362    28.2504 opls-117      1 RES        0.423800
     393 HW2          6.1616     7.5936    27.0648 opls-117      1 RES        0.423800
     394 OW          12.7661    10.0751    26.1955 opls-116      1 RES       -0.847600
     395 HW1         13.7176    10.2446    25.9388 opls-117      1 RES        0.423800
     396 HW2         12.2667     9.7172    25.4065 opls-117      1 RES        0.423800
     397 OW           9.0183     7.3888    15.6605 opls-116      1 RES       -0.847600
     398 HW1          8.1043     7.7934    15.6908 opls-117      1 RES        0.423800
     399 HW2          9.6876     8.0944    15.4280 opls-117      1 RES        0.423800
     400 OW          10.6679    11.9096     2.0120 opls-116      1 RES       -0.847600
     401 HW1         10.9146    10.9406     1.9997 opls-117      1 RES        0.423800
     402 HW2          9.6721    11.9999     2.0196 opls-117      1 RES        0.423800
     403 OW          25.2366    11.1149    18.2114 opls-116      1 RES       -0.847600
     404 HW1         25.2220    11.0242    17.2156 opls-117      1 RES        0.423800
     405 HW2         25.3962    10.2187    18.6254 opls-117      1 RES        0.423800
     406 OW          25.4327    12.6048     1.9996 opls-116      1 RES       -0.847600
     407 HW1         24.5484    12.1378     1.9996 opls-117      1 RES        0.423800
     408 HW2         25.2872    13.5941     1.9996 opls-117      1 RES        0.423800
     409 OW          14.7923    26.8506     9.7166 opls-116      1 RES       -0.847600
     410 HW1         15.4564    26.3624    10.2827 opls-117      1 RES        0.423800
     411 HW2         14.2841    27.4991    10.2833 opls-117      1 RES        0.423800
     412 OW           9.9660    15.9482    17.1000 opls-116      1 RES       -0.847600
     413 HW1         10.4054    15.8811    16.2042 opls-117      1 RES        0.423800
     414 HW2          9.4643    16.8111    17.1614 opls-117      1 RES        0.423800
     415 OW           9.2164    25.4366    14.1551 opls-116      1 RES       -0.847600
     416 HW1          9.1241    24.4573    14.3352 opls-117      1 RES        0.423800
     417 HW2          8.8084    25.6522    13.2679 opls-117      1 RES        0.423800
     418 OW          16.0389    22.1389     8.2551 opls-116      1 RES       -0.847600
     419 HW1         15.8044    21.3627     8.8404 opls-117      1 RES        0.423800
     420 HW2         16.8590    21.9214     7.7257 opls-117      1 RES        0.423800
     421 OW          18.9100    23.4491    12.5960 opls-116      1 RES       -0.847600
     422 HW1         18.0505    22.9382    12.5768 opls-117      1 RES        0.423800
     423 HW2         18.9378    24.0241    13.4136 opls-117      1 RES        0.423800
     424 OW          16.0004    12.8295    26.5741 opls-116      1 RES       -0.847600
     425 HW1         15.4017    12.0360    26.6836 opls-117      1 RES        0.423800
     426 HW2         16.9509    12.5244    26.5159 opls-117      1 RES        0.423800
     427 OW          23.2471    17.5720     7.8817 opls-116      1 RES       -0.847600
     428 HW1         23.0311    18.5400     8.0095 opls-117      1 RES        0.423800
     429 HW2         24.2238    17.4250     8.0379 opls-117      1 RES        0.423800
     430 OW          16.7179    19.3492     7.7454 opls-116      1 RES       -0.847600
     431 HW1         16.8860    18.3714     7.8706 opls-117      1 RES        0.423800
     432 HW2         17.5808    19.8485     7.8236 opls-117      1 RES        0.423800
     433 OW          27.4651    11.3303     4.7645 opls-116      1 RES       -0.847600
     434 HW1         27.3459    11.0577     3.8098 opls-117      1 RES        0.423800
     435 HW2         27.8327    12.2595     4.8024 opls-117      1 RES        0.423800
     436 OW           2.0155    16.5243    22.2306 opls-116      1 RES       -0.847600
     437 HW1          2.0113    15.8114    21.5294 opls-117      1 RES        0.423800
     438 HW2          2.8472    17.0727    22.1434 opls-117      1 RES        0.423800
     439 OW          29.2761    18.7435     8.4146 opls-116      1 RES       -0.847600
     440 HW1         28.7070    19.0883     7.6681 opls-117      1 RES        0.423800
     441 HW2         30.0466    19.3640     8.5602 opls-117      1 RES        0.423800
     442 OW          24.6119    25.8000    10.7048 opls-116      1 RES       -0.847600
     443 HW1         25.0078    26.7183    10.7149 opls-117      1 RES        0.423800
     444 HW2         25.3451    25.1206    10.7371 opls-117      1 RES        0.423800
     445 OW          12.7101    15.5553    12.0984 opls-116      1 RES       -0.847600
     446 HW1         11.9396    14.9339    11.9563 opls-117      1 RES        0.423800
     447 HW2         13.4672    15.0564    12.5201 opls-117      1 RES        0.423800
     448 OW          28.7707    13.4959    12.2129 opls-116      1 RES       -0.847600
     449 HW1         28.2347    12.6807    12.4321 opls-117      1 RES        0.423800
     450 HW2         29.7068    13.3784    12.5444 opls-117      1 RES        0.423800
     451 OW           3.1455    26.9327    22.0795 opls-116      1 RES       -0.847600
     452 HW1          3.8368    26.5703    22.7046 opls-117      1 RES        0.423800
     453 HW2          2.3662    26.3071    22.0453 opls-117      1 RES        0.423800
     454 OW          21.0095    24.0277    12.2520 opls-116      1 RES       -0.847600
     455 HW1         21.4583    24.1502    11.3668 opls-117      1 RES        0.423800
     456 HW2         21.0756    23.0692    12.5294 opls-117      1 RES        0.423800
     457 OW           7.9364     7.9503    21.2950 opls-116      1 RES       -0.847600
     458 HW1          8.6837     8.5738    21.5244 opls-117      1 RES        0.423800
     459 HW2          8.0685     7.5983    20.3684 opls-117      1 RES        0.423800
     460 OW           2.6909    13.0301    12.5225 opls-116      1 RES       -0.847600
     461 HW1          2.2591    12.1801    12.8243 opls-117      1 RES        0.423800
     462 HW2          1.9930    13.7378    12.4128 opls-117      1 RES        0.423800
     463 OW           6.9399     5.7426    10.5171 opls-116      1 RES       -0.847600
     464 HW1          7.8889     5.7580    10.8321 opls-117      1 RES        0.423800
     465 HW2          6.7370     6.5913    10.0287 opls-117      1 RES        0.423800
     466 OW          12.8451    23.0094     2.0200 opls-116      1 RES       -0.847600
     467 HW1         13.8144    22.7810     2.1106 opls-117      1 RES        0.423800
     468 HW2         12.7374    24.0033     1.9984 opls-117      1 RES        0.423800
     469 OW          16.1192    26.1532     5.0606 opls-116      1 RES       -0.847600
     470 HW1         16.1015    26.6767     5.9124 opls-117      1 RES        0.423800
     471 HW2         15.2761    26.3199     4.5492 opls-117      1 RES        0.423800
     472 OW          20.6061    27.2285    20.7096 opls-116      1 RES       -0.847600
     473 HW1         19.9963    26.6256    21.2240 opls-117      1 RES        0.423800
     474 HW2         21.4245    26.7220    20.4380 opls-117      1 RES        0.423800
     475 OW          12.2433    14.3348    16.6557 opls-116      1 RES       -0.847600
     476 HW1         11.4444    14.2597    17.2524 opls-117      1 RES        0.423800
     477 HW2         12.4961    15.2972    16.5567 opls-117      1 RES        0.423800
     478 OW          29.3390     8.5156    15.9682 opls-116      1 RES       -0.847600
     479 HW1         30.0708     7.9702    15.5595 opls-117      1 RES        0.423800
     480 HW2         29.5625     8.7110    16.9231 opls-117      1 RES        0.423800
     481 OW          20.1644    29.1223    12.1004 opls-116      1 RES       -0.847600
     482 HW1         19.9989    30.0583    12.4108 opls-117      1 RES        0.423800
     483 HW2         20.5972    29.1416    11.1991 opls-117      1 RES        0.423800
     484 OW          19.8520    27.8848    16.1663 opls-116      1 RES       -0.847600
     485 HW1         19.6809    28.7995    15.8003 opls-117      1 RES        0.423800
     486 HW2         20.8279    27.6767    16.1009 opls-117      1 RES        0.423800
     487 OW          18.5941    25.1353    30.0504 opls-116      1 RES       -0.847600
     488 HW1         17.8607    24.5010    29.8059 opls-117      1 RES        0.423800
     489 HW2         18.2350    26.0684    30.0706 opls-117      1 RES        0.423800
     490 OW           7.6587    28.8171    28.0208 opls-116      1 RES       -0.847600
     491 HW1          7.7243    28.6740    29.0083 opls-117      1 RES        0.423800
     492 HW2          7.2820    27.9973    27.5895 opls-117      1 RES        0.423800
     493 OW          17.5806    15.1804    25.8786 opls-116      1 RES       -0.847600
     494 HW1         16.6582    15.0605    26.2458 opls-117      1 RES        0.423800
     495 HW2         17.9905    14.2844    25.7079 opls-117      1 RES        0.423800
     496 OW          22.2674     8.7694     2.1211 opls-116      1 RES       -0.847600
     497 HW1         22.7729     9.5326     2.5237 opls-117      1 RES        0.423800
     498 HW2         21.3110     9.0329     1.9946 opls-117      1 RES        0.423800
     499 OW          11.5918    15.9501    23.6595 opls-116      1 RES       -0.847600
     500 HW1         11.1996    16.5353    24.3692 opls-117      1 RES        0.423800
     501 HW2         12.1502    15.2382    24.0854 opls-117      1 RES        0.423800
     502 OW           9.6490    13.9904    21.0669 opls-116      1 RES       -0.847600
     503 HW1         10.2144    14.8144    21.1048 opls-117      1 RES        0.423800
     504 HW2         10.2355    13.1887    20.9513 opls-117      1 RES        0.423800
     505 OW          29.5410    20.4553    18.6474 opls-116      1 RES       -0.847600
     506 HW1         30.0459    20.6997    19.4752 opls-117      1 RES        0.423800
     507 HW2         30.0664    20.7317    17.8427 opls-117      1 RES        0.423800
     508 OW          16.0676     8.4320    17.1199 opls-116      1 RES       -0.847600
     509 HW1         16.0772     8.0753    16.1857 opls-117      1 RES        0.423800
     510 HW2         15.4511     7.8798    17.6811 opls-117      1 RES        0.423800
     511 OW          21.8226    24.8690    22.2557 opls-116      1 RES       -0.847600
     512 HW1         21.1770    25.4937    22.6950 opls-117      1 RES        0.423800
     513 HW2         22.3189    24.3560    22.9560 opls-117      1 RES        0.423800
     514 OW          24.6344    14.4507    15.3602 opls-116      1 RES       -0.847600
     515 HW1         24.1848    13.5608    15.4372 opls-117      1 RES        0.423800
     516 HW2         25.4862    14.3503    14.8460 opls-117      1 RES        0.423800
     517 OW           5.2283     3.4920    21.4227 opls-116      1 RES       -0.847600
     518 HW1          4.4874     3.9749    21.8896 opls-117      1 RES        0.423800
     519 HW2          5.7631     4.1430    20.8840 opls-117      1 RES        0.423800
     520 OW          13.8401    22.1865     8.2925 opls-116      1 RES       -0.847600
     521 HW1         13.3728    23.0653     8.1960 opls-117      1 RES        0.423800
     522 HW2         13.1628    21.4522     8.3385 opls-117      1 RES        0.423800
     523 OW          20.4749     3.9909     9.0280 opls-116      1 RES       -0.847600
     524 HW1         19.4809     4.0527     8.9384 opls-117      1 RES        0.423800
     525 HW2         20.9077     4.6117     8.3743 opls-117      1 RES        0.423800
     526 OW          18.4515    27.2184    22.6725 opls-116      1 RES       -0.847600
     527 HW1         18.4799    28.1130    22.2266 opls-117      1 RES        0.423800
     528 HW2         17.5393    27.0640    23.0520 opls-117      1 RES        0.423800
     529 OW           4.0356    13.0882    17.1725 opls-116      1 RES       -0.847600
     530 HW1          4.5785    12.2567    17.2900 opls-117      1 RES        0.423800
     531 HW2          3.6950    13.3924    18.0621 opls-117      1 RES        0.423800
     532 OW           9.5608    14.7869     5.4231 opls-116      1 RES       -0.847600
     533 HW1         10.4695    15.1986     5.4915 opls-117      1 RES        0.423800
     534 HW2          9.6510    13.8118     5.2206 opls-117      1 RES        0.423800
     535 OW          26.1375     9.3799    13.1511 opls-116      1 RES       -0.847600
     536 HW1         27.1264     9.4527    13.2808 opls-117      1 RES        0.423800
     537 HW2         25.6941     9.2463    14.0374 opls-117      1 RES        0.423800
     538 OW          15.7588     3.6143    13.0215 opls-116      1 RES       -0.847600
     539 HW1         16.0117     2.7341    13.4230 opls-117      1 RES        0.423800
     540 HW2         14.7927     3.5979    12.7638 opls-117      1 RES        0.423800
     541 OW          22.2271     6.6329    18.0142 opls-116      1 RES       -0.847600
     542 HW1         21.5474     6.9927    18.6534 opls-117      1 RES        0.423800
     543 HW2         22.2130     7.1739    17.1733 opls-117      1 RES        0.423800
     544 OW          12.2328     2.0923    17.2965 opls-116      1 RES       -0.847600
     545 HW1         13.1865     2.2300    17.5639 opls-117      1 RES        0.423800
     546 HW2         12.1804     1.9550    16.3074 opls-117      1 RES        0.423800
     547 OW          24.3004     4.3188    26.3410 opls-116      1 RES       -0.847600
     548 HW1         23.3401     4.1345    26.1314 opls-117      1 RES        0.423800
     549 HW2         24.4547     4.2068    27.3226 opls-117      1 RES        0.423800
     550 OW          13.5653    25.2043    21.8050 opls-116      1 RES       -0.847600
     551 HW1         14.3303    24.8889    21.2435 opls-117      1 RES        0.423800
     552 HW2         13.0936    24.4155    22.1990 opls-117      1 RES        0.423800
     553 OW          27.2535    30.0674    24.6308 opls-116      1 RES       -0.847600
     554 HW1         26.4400    30.0749    25.2124 opls-117      1 RES        0.423800
     555 HW2         27.5605    29.1249    24.4992 opls-117      1 RES        0.423800
     556 OW           5.3154    21.8324    18.2999 opls-116      1 RES       -0.847600
     557 HW1          5.8308    22.1887    17.5205 opls-117      1 RES        0.423800
     558 HW2          5.3646    20.8336    18.3034 opls-117      1 RES        0.423800
     559 OW          21.7537    26.2042     6.6554 opls-116      1 RES       -0.847600
     560 HW1         21.6491    25.2326     6.4433 opls-117      1 RES        0.423800
     561 HW2         20.9537    26.7054     6.3257 opls-117      1 RES        0.423800
     562 OW          24.8390    27.5344     5.1786 opls-116      1 RES       -0.847600
     563 HW1         25.1919    26.6009     5.2423 opls-117      1 RES        0.423800
     564 HW2         23.8994    27.5130     4.8369 opls-117      1 RES        0.423800
     565 OW          28.5581    14.9137    30.0147 opls-116      1 RES       -0.847600
     566 HW1         28.9654    14.0020    30.0688 opls-117      1 RES        0.423800
     567 HW2         27.5626    14.8379    30.0717 opls-117      1 RES        0.423800
     568 OW          21.7307    28.4754    13.8183 opls-116      1 RES       -0.847600
     569 HW1         22.3230    28.2398    14.5888 opls-117      1 RES        0.423800
     570 HW2         21.0504    29.1461    14.1139 opls-117      1 RES        0.423800
     571 OW          29.1555     3.5970     5.3235 opls-116      1 RES       -0.847600
     572 HW1         30.0332     4.0758     5.3408 opls-117      1 RES        0.423800
     573 HW2         28.5097     4.0628     5.9284 opls-117      1 RES        0.423800
     574 OW          24.5528    26.3449     7.8189 opls-116      1 RES       -0.847600
     575 HW1         24.5379    25.3907     7.5202 opls-117      1 RES        0.423800
     576 HW2         25.2340    26.4572     8.5423 opls-117      1 RES        0.423800
     577 OW           5.0165    24.9600     4.6248 opls-116      1 RES       -0.847600
     578 HW1          4.4665    24.1824     4.9295 opls-117      1 RES        0.423800
     579 HW2          5.9198    24.6385     4.3409 opls-117      1 RES        0.423800
     580 OW           7.6339    25.3298    20.5034 opls-116      1 RES       -0.847600
     581 HW1          8.4993    24.8289    20.5082 opls-117      1 RES        0.423800
     582 HW2          6.9277    24.7710    20.0685 opls-117      1 RES        0.423800
     583 OW           8.4897     2.9511    24.3082 opls-116      1 RES       -0.847600
     584 HW1          7.8818     3.7410    24.3889 opls-117      1 RES        0.423800
     585 HW2          8.0728     2.1621    24.7597 opls-117      1 RES        0.423800
     586 OW          16.8827     3.3122    20.8337 opls-116      1 RES       -0.847600
     587 HW1         16.7342     4.1769    21.3135 opls-117      1 RES        0.423800
     588 HW2         16.2804     3.2655    20.0367 opls-117      1 RES        0.423800
     589 OW          13.0867    13.3667     7.6050 opls-116      1 RES       -0.847600
     590 HW1         12.9289    14.3537     7.6347 opls-117      1 RES        0.423800
     591 HW2         12.6578    12.9364     8.3993 opls-117      1 RES        0.423800
     592 OW          19.5284    17.3535    19.7288 opls-116      1 RES       -0.847600
     593 HW1         18.5454    17.3368    19.5460 opls-117      1 RES        0.423800
     594 HW2         19.8980    16.4276    19.6496 opls-117      1 RES        0.423800
     595 OW          21.2688     5.4325    24.6981 opls-116      1 RES       -0.847600
     596 HW1         21.1718     4.4516    24.5296 opls-117      1 RES        0.423800
     597 HW2         20.4367     5.9046    24.4070 opls-117      1 RES        0.423800
     598 OW           5.0911     6.8063     7.7144 opls-116      1 RES       -0.847600
     599 HW1          5.0743     7.0825     8.6753 opls-117      1 RES        0.423800
     600 HW2          4.9220     7.6039     7.1353 opls-117      1 RES        0.423800
     601 OW          11.1282    25.9564     5.7134 opls-116      1 RES       -0.847600
     602 HW1         11.3962    26.6960     6.3308 opls-117      1 RES        0.423800
     603 HW2         10.1911    25.6740     5.9186 opls-117      1 RES        0.423800
     604 OW          15.4245     1.9977     4.3581 opls-116      1 RES       -0.847600
     605 HW1         14.7514     2.0764     5.0934 opls-117      1 RES        0.423800
     606 HW2         15.8261     2.8953     4.1763 opls-117      1 RES        0.423800
     607 OW          17.1512    21.0326    26.2566 opls-116      1 RES       -0.847600
     608 HW1         18.1426    21.1161    26.3575 opls-117      1 RES        0.423800
     609 HW2         16.9363    20.1910    25.7611 opls-117      1 RES        0.423800
     610 OW          20.1915    14.1737    10.4870 opls-116      1 RES       -0.847600
     611 HW1         20.2964    14.5012    11.4259 opls-117      1 RES        0.423800
     612 HW2         20.4886    14.8855     9.8505 opls-117      1 RES        0.423800
     613 OW          26.1127    19.9092     6.6517 opls-116      1 RES       -0.847600
     614 HW1         26.6881    19.7343     5.8528 opls-117      1 RES        0.423800
     615 HW2         26.5682    19.5645     7.4725 opls-117      1 RES        0.423800
     616 OW          21.3146    20.6329    13.3711 opls-116      1 RES       -0.847600
     617 HW1         21.9587    19.8911    13.5579 opls-117      1 RES        0.423800
     618 HW2         20.4460    20.4435    13.8289 opls-117      1 RES        0.423800
     619 OW          27.0525    26.1286     9.7837 opls-116      1 RES       -0.847600
     620 HW1         28.0256    25.8996     9.8089 opls-117      1 RES        0.423800
     621 HW2         26.9445    27.1223     9.7549 opls-117      1 RES        0.423800
     622 OW          27.2737    16.3849    15.5341 opls-116      1 RES       -0.847600
     623 HW1         27.3481    15.4029    15.3607 opls-117      1 RES        0.423800
     624 HW2         28.1878    16.7899    15.5549 opls-117      1 RES        0.423800
     625 OW          26.3001    18.6019    15.8211 opls-116      1 RES       -0.847600
     626 HW1         25.6405    19.3532    15.7969 opls-117      1 RES        0.423800
     627 HW2         26.4855    18.3517    16.7714 opls-117      1 RES        0.423800
     628 OW          14.6249     3.3817    27.4512 opls-116      1 RES       -0.847600
     629 HW1         14.5457     4.3026    27.8329 opls-117      1 RES        0.423800
     630 HW2         15.5147     3.2807    27.0062 opls-117      1 RES        0.423800
     631 OW           7.2425    12.3158     5.5897 opls-116      1 RES       -0.847600
     632 HW1          6.7265    11.4703     5.4525 opls-117      1 RES        0.423800
     633 HW2          8.2027    12.1619     5.3567 opls-117      1 RES        0.423800
     634 OW           5.0638    22.4702     3.6705 opls-116      1 RES       -0.847600
     635 HW1          5.2619    21.5598     3.3074 opls-117      1 RES        0.423800
     636 HW2          4.2873    22.8637     3.1783 opls-117      1 RES        0.423800
     637 OW          15.7509    26.8454    12.4109 opls-116      1 RES       -0.847600
     638 HW1         16.0831    27.6637    11.9419 opls-117      1 RES        0.423800
     639 HW2         15.7251    27.0133    13.3963 opls-117      1 RES        0.423800
     640 OW           2.7980     3.0433    14.9962 opls-116      1 RES       -0.847600
     641 HW1          1.9996     2.9212    15.5859 opls-117      1 RES        0.423800
     642 HW2          3.0225     2.1743    14.5552 opls-117      1 RES        0.423800
     643 OW          29.6694    27.1823     3.9905 opls-116      1 RES       -0.847600
     644 HW1         28.6755    27.1465     4.0949 opls-117      1 RES        0.423800
     645 HW2         30.0699    27.6569     4.7743 opls-117      1 RES        0.423800
     646 OW          17.2874    27.9124    15.4567 opls-116      1 RES       -0.847600
     647 HW1         17.5726    26.9832    15.2216 opls-117      1 RES        0.423800
     648 HW2         16.3130    28.0217    15.2602 opls-117      1 RES        0.423800
     649 OW          22.9762     4.9303     4.1848 opls-116      1 RES       -0.847600
     650 HW1         23.2465     4.0406     4.5527 opls-117      1 RES        0.423800
     651 HW2         23.5804     5.1750     3.4265 opls-117      1 RES        0.423800
     652 OW          24.9012    28.7797    20.8617 opls-116      1 RES       -0.847600
     653 HW1         24.9256    28.2328    20.0248 opls-117      1 RES        0.423800
     654 HW2         24.5381    28.2261    21.6112 opls-117      1 RES        0.423800
     655 OW           8.3449    19.0387    16.1113 opls-116      1 RES       -0.847600
     656 HW1          8.4375    18.9084    17.0984 opls-117      1 RES        0.423800
     657 HW2          7.7536    19.8252    15.9329 opls-117      1 RES        0.423800
     658 OW          27.1957    16.8797     2.5595 opls-116      1 RES       -0.847600
     659 HW1         28.0927    16.6497     2.9369 opls-117      1 RES        0.423800
     660 HW2         27.2712    17.7051     2.0000 opls-117      1 RES        0.423800
     661 OW           1.9928    12.7772    23.8695 opls-116      1 RES       -0.847600
     662 HW1          2.0272    13.7503    24.0972 opls-117      1 RES        0.423800
     663 HW2          2.9208    12.4048    23.8570 opls-117      1 RES        0.423800
     664 OW          19.4319     6.0545    17.2636 opls-116      1 RES       -0.847600
     665 HW1         20.1093     6.6397    16.8179 opls-117      1 RES        0.423800
     666 HW2         19.6190     6.0160    18.2452 opls-117      1 RES        0.423800
     667 OW          21.8245     5.4250     6.4960 opls-116      1 RES       -0.847600
     668 HW1         22.2845     4.5375     6.4673 opls-117      1 RES        0.423800
     669 HW2         21.1820     5.4923     5.7327 opls-117      1 RES        0.423800
     670 OW           6.3903    20.2347    23.5069 opls-116      1 RES       -0.847600
     671 HW1          6.7533    19.3438    23.7800 opls-117      1 RES        0.423800
     672 HW2          5.5105    20.1098    23.0483 opls-117      1 RES        0.423800
     673 OW          23.3223     8.5733    27.7209 opls-116      1 RES       -0.847600
     674 HW1         23.8038     7.7199    27.9210 opls-117      1 RES        0.423800
     675 HW2         22.3543     8.4714    27.9503 opls-117      1 RES        0.423800
     676 OW          12.2164    27.8128     8.4639 opls-116      1 RES       -0.847600
     677 HW1         13.0048    28.4266     8.4237 opls-117      1 RES        0.423800
     678 HW2         12.5194    26.8710     8.3184 opls-117      1 RES        0.423800
     679 OW          19.3786     4.7998    12.7681 opls-116      1 RES       -0.847600
     680 HW1         20.3153     4.9668    13.0759 opls-117      1 RES        0.423800
     681 HW2         19.0781     5.5573    12.1886 opls-117      1 RES        0.423800
     682 OW          21.3357    11.9365     5.1438 opls-116      1 RES       -0.847600
     683 HW1         22.0083    11.3143     5.5443 opls-117      1 RES        0.423800
     684 HW2         21.6601    12.2477     4.2505 opls-117      1 RES        0.423800
     685 OW          11.5294    18.0420    11.4253 opls-116      1 RES       -0.847600
     686 HW1         11.7966    17.8433    12.3682 opls-117      1 RES        0.423800
     687 HW2         12.1656    18.7053    11.0313 opls-117      1 RES        0.423800
     688 OW          11.1136     8.9998    20.1457 opls-116      1 RES       -0.847600
     689 HW1         11.8766     9.5842    20.4219 opls-117      1 RES        0.423800
     690 HW2         10.2846     9.5525    20.0596 opls-117      1 RES        0.423800
     691 OW          14.3487     7.4620    14.8359 opls-116      1 RES       -0.847600
     692 HW1         13.4338     7.5489    14.4417 opls-117      1 RES        0.423800
     693 HW2         15.0270     7.4362    14.1015 opls-117      1 RES        0.423800
     694 OW           6.6021    14.1110    21.7765 opls-116      1 RES       -0.847600
     695 HW1          7.5435    14.4432    21.8343 opls-117      1 RES        0.423800
     696 HW2          6.0997    14.3890    22.5953 opls-117      1 RES        0.423800
     697 OW           5.1963     3.2776     4.3604 opls-116      1 RES       -0.847600
     698 HW1          4.7403     3.9699     3.8010 opls-117      1 RES        0.423800
     699 HW2          5.1315     3.5331     5.3251 opls-117      1 RES        0.423800
     700 OW          14.5114    19.0202     9.2252 opls-116      1 RES       -0.847600
     701 HW1         14.2571    19.9449     9.5088 opls-117      1 RES        0.423800
     702 HW2         15.4623    18.8434     9.4793 opls-117      1 RES        0.423800
     703 OW          11.7133     2.9441    11.2941 opls-116      1 RES       -0.847600
     704 HW1         11.9922     1.9987    11.1252 opls-117      1 RES        0.423800
     705 HW2         12.4198     3.4099    11.8269 opls-117      1 RES        0.423800
     706 OW          25.7977    13.3965     6.0043 opls-116      1 RES       -0.847600
     707 HW1         24.8608    13.7123     6.1545 opls-117      1 RES        0.423800
     708 HW2         25.7803    12.5025     5.5566 opls-117      1 RES        0.423800
     709 OW          13.2882    12.5147    17.3139 opls-116      1 RES       -0.847600
     710 HW1         14.1412    12.0177    17.4731 opls-117      1 RES        0.423800
     711 HW2         12.9723    12.9180    18.1727 opls-117      1 RES        0.423800
     712 OW          22.3279    25.0407    18.0584 opls-116      1 RES       -0.847600
     713 HW1         23.3184    25.0991    18.1834 opls-117      1 RES        0.423800
     714 HW2         21.8724    25.1766    18.9382 opls-117      1 RES        0.423800
     715 OW          12.6449    22.3238    14.7934 opls-116      1 RES       -0.847600
     716 HW1         12.1079    22.1172    13.9756 opls-117      1 RES        0.423800
     717 HW2         12.6759    23.3139    14.9305 opls-117      1 RES        0.423800
     718 OW           7.9804    11.4082     3.3018 opls-116      1 RES       -0.847600
     719 HW1          7.0865    11.8563     3.3168 opls-117      1 RES        0.423800
     720 HW2          7.9452    10.5757     3.8548 opls-117      1 RES        0.423800
     721 OW          11.6342    26.2174    15.5056 opls-116      1 RES       -0.847600
     722 HW1         11.6809    25.2396    15.3014 opls-117      1 RES        0.423800
     723 HW2         10.8495    26.6193    15.0337 opls-117      1 RES        0.423800
     724 OW           8.4984     5.1281     6.1896 opls-116      1 RES       -0.847600
     725 HW1          8.6619     4.9139     5.2266 opls-117      1 RES        0.423800
     726 HW2          9.2142     5.7430     6.5205 opls-117      1 RES        0.423800
     727 OW           3.3796     8.6400    25.7555 opls-116      1 RES       -0.847600
     728 HW1          2.5991     8.9114    26.3186 opls-117      1 RES        0.423800
     729 HW2          4.2187     9.0230    26.1420 opls-117      1 RES        0.423800
     730 OW          18.9778    11.8366    27.0240 opls-116      1 RES       -0.847600
     731 HW1         19.1370    11.7038    28.0023 opls-117      1 RES        0.423800
     732 HW2         19.1895    12.7822    26.7772 opls-117      1 RES        0.423800
     733 OW           3.8474    12.8100     2.0102 opls-116      1 RES       -0.847600
     734 HW1          4.4193    11.9898     1.9982 opls-117      1 RES        0.423800
     735 HW2          2.8834    12.5443     2.0038 opls-117      1 RES        0.423800
     736 OW          11.1020    21.8588    25.1291 opls-116      1 RES       -0.847600
     737 HW1         11.6569    22.5593    25.5778 opls-117      1 RES        0.423800
     738 HW2         10.7065    21.2537    25.8201 opls-117      1 RES        0.423800
     739 OW           2.5511    19.6790    25.4484 opls-116      1 RES       -0.847600
     740 HW1          1.9977    18.8657    25.2684 opls-117      1 RES        0.423800
     741 HW2          1.9515    20.4702    25.5688 opls-117      1 RES        0.423800
     742 OW          17.7524    20.4030    18.3927 opls-116      1 RES       -0.847600
     743 HW1         16.8280    20.7166    18.6098 opls-117      1 RES        0.423800
     744 HW2         18.3772    21.1837    18.3899 opls-117      1 RES        0.423800
     745 OW          19.4834    24.6900    20.3130 opls-116      1 RES       -0.847600
     746 HW1         18.9463    23.9331    20.6854 opls-117      1 RES        0.423800
     747 HW2         20.4435    24.5741    20.5674 opls-117      1 RES        0.423800
     748 OW          24.7735    29.3179     6.4647 opls-116      1 RES       -0.847600
     749 HW1         25.4649    29.6065     7.1270 opls-117      1 RES        0.423800
     750 HW2         24.5810    30.0702     5.8346 opls-117      1 RES        0.423800
     751 OW           6.7253     3.9167    11.7252 opls-116      1 RES       -0.847600
     752 HW1          5.8378     3.9939    11.2707 opls-117      1 RES        0.423800
     753 HW2          6.9106     2.9564    11.9335 opls-117      1 RES        0.423800
     754 OW          13.7306    17.2765    10.4432 opls-116      1 RES       -0.847600
     755 HW1         12.8917    16.7612    10.2681 opls-117      1 RES        0.423800
     756 HW2         14.4677    16.9180     9.8703 opls-117      1 RES        0.423800
     757 OW           6.1303    29.9190     8.6310 opls-116      1 RES       -0.847600
     758 HW1          5.1495    30.0711     8.7529 opls-117      1 RES        0.423800
     759 HW2          6.6033    30.0840     9.4965 opls-117      1 RES        0.423800
     760 OW          20.1565    14.5764    16.0762 opls-116      1 RES       -0.847600
     761 HW1         20.7316    13.7720    15.9277 opls-117      1 RES        0.423800
     762 HW2         20.6760    15.4025    15.8577 opls-117      1 RES        0.423800
     763 OW          11.7860    24.8184    28.8476 opls-116      1 RES       -0.847600
     764 HW1         10.7906    24.8712    28.9282 opls-117      1 RES        0.423800
     765 HW2         12.1697    25.7419    28.8464 opls-117      1 RES        0.423800
     766 OW          22.6801    26.0798    12.6803 opls-116      1 RES       -0.847600
     767 HW1         22.6804    25.1752    13.1066 opls-117      1 RES        0.423800
     768 HW2         23.6219    26.3993    12.5756 opls-117      1 RES        0.423800
     769 OW          17.0297    24.4359     2.2705 opls-116      1 RES       -0.847600
     770 HW1         16.2656    23.8740     1.9538 opls-117      1 RES        0.423800
     771 HW2         16.6979    25.1065     2.9339 opls-117      1 RES        0.423800
     772 OW          19.8976     9.2266    12.4557 opls-116      1 RES       -0.847600
     773 HW1         20.7480     9.7446    12.3633 opls-117      1 RES        0.423800
     774 HW2         19.1237     9.8591    12.4861 opls-117      1 RES        0.423800
     775 OW          16.7271    22.8002    17.9126 opls-116      1 RES       -0.847600
     776 HW1         16.2351    23.6683    17.8475 opls-117      1 RES        0.423800
     777 HW2         16.8389    22.4110    16.9983 opls-117      1 RES        0.423800
     778 OW          21.5296    17.6756    14.8176 opls-116      1 RES       -0.847600
     779 HW1         21.3475    18.3632    15.5205 opls-117      1 RES        0.423800
     780 HW2         22.3920    17.8886    14.3584 opls-117      1 RES        0.423800
     781 OW           3.3812    10.1626    21.7410 opls-116      1 RES       -0.847600
     782 HW1          2.9994    10.9687    22.1933 opls-117      1 RES        0.423800
     783 HW2          3.0153     9.3360    22.1686 opls-117      1 RES        0.423800
     784 OW           6.1288     6.8560    17.0552 opls-116      1 RES       -0.847600
     785 HW1          5.9706     6.0858    17.6730 opls-117      1 RES        0.423800
     786 HW2          6.8228     7.4602    17.4467 opls-117      1 RES        0.423800
     787 OW          21.9993    22.4866    24.0703 opls-116      1 RES       -0.847600
     788 HW1         22.6670    21.8330    24.4265 opls-117      1 RES        0.423800
     789 HW2         21.1023    22.0484    24.0120 opls-117      1 RES        0.423800
     790 OW           9.9931     2.2713     9.3831 opls-116      1 RES       -0.847600
     791 HW1          9.8152     2.3025    10.3667 opls-117      1 RES        0.423800
     792 HW2          9.4036     2.9308     8.9167 opls-117      1 RES        0.423800
     793 OW          18.0885    16.4323     7.8247 opls-116      1 RES       -0.847600
     794 HW1         17.6864    15.8840     7.0915 opls-117      1 RES        0.423800
     795 HW2         18.9719    16.0432     8.0859 opls-117      1 RES        0.423800
     796 OW          27.6038    30.0729    21.5973 opls-116      1 RES       -0.847600
     797 HW1         28.3639    29.5502    21.2114 opls-117      1 RES        0.423800
     798 HW2         26.8095    29.4752    21.7061 opls-117      1 RES        0.423800
     799 OW          26.3357     4.8773    12.9612 opls-116      1 RES       -0.847600
     800 HW1         26.8378     4.9783    13.8201 opls-117      1 RES        0.423800
     801 HW2         26.4032     5.7245    12.4341 opls-117      1 RES        0.423800
     802 OW          14.1404    25.5403     6.4200 opls-116      1 RES       -0.847600
     803 HW1         14.2519    26.2543     7.1113 opls-117      1 RES        0.423800
     804 HW2         13.6430    24.7682     6.8155 opls-117      1 RES        0.423800
     805 OW          14.8823    23.4331    19.5659 opls-116      1 RES       -0.847600
     806 HW1         15.7136    23.6300    20.0857 opls-117      1 RES        0.423800
     807 HW2         14.5466    24.2747    19.1427 opls-117      1 RES        0.423800
     808 OW           2.8004    15.8679    17.6334 opls-116      1 RES       -0.847600
     809 HW1          2.9642    16.8317    17.4231 opls-117      1 RES        0.423800
     810 HW2          3.4573    15.5607    18.3220 opls-117      1 RES        0.423800
     811 OW           8.6678    16.3123    21.5534 opls-116      1 RES       -0.847600
     812 HW1          9.0344    17.0222    22.1548 opls-117      1 RES        0.423800
     813 HW2          7.7412    16.5604    21.2709 opls-117      1 RES        0.423800
     814 OW           3.0401    20.9461    23.7180 opls-116      1 RES       -0.847600
     815 HW1          3.6640    21.3044    23.0235 opls-117      1 RES        0.423800
     816 HW2          2.4181    20.2851    23.2981 opls-117      1 RES        0.423800
     817 OW          12.7589    28.7790    15.0924 opls-116      1 RES       -0.847600
     818 HW1         12.4908    27.9946    14.5330 opls-117      1 RES        0.423800
     819 HW2         11.9779    29.3943    15.1997 opls-117      1 RES        0.423800
     820 OW          25.5707    15.6693    21.5971 opls-116      1 RES       -0.847600
     821 HW1         24.8931    16.3798    21.4071 opls-117      1 RES        0.423800
     822 HW2         25.1246    14.7742    21.5950 opls-117      1 RES        0.423800
     823 OW           5.8203    15.2643    25.5950 opls-116      1 RES       -0.847600
     824 HW1          5.6965    14.7991    24.7185 opls-117      1 RES        0.423800
     825 HW2          6.7570    15.1256    25.9165 opls-117      1 RES        0.423800
     826 OW           3.7355    24.3363    10.6643 opls-116      1 RES       -0.847600
     827 HW1          3.8613    23.4247    10.2730 opls-117      1 RES        0.423800
     828 HW2          2.8586    24.7105    10.3625 opls-117      1 RES        0.423800
     829 OW          12.9952     7.7145     5.3051 opls-116      1 RES       -0.847600
     830 HW1         13.8142     7.5260     4.7633 opls-117      1 RES        0.423800
     831 HW2         12.3061     7.0132     5.1225 opls-117      1 RES        0.423800
     832 OW          29.4466    26.2673    14.2477 opls-116      1 RES       -0.847600
     833 HW1         30.0714    27.0481    14.2406 opls-117      1 RES        0.423800
     834 HW2         28.5191    26.5845    14.4456 opls-117      1 RES        0.423800
     835 OW           7.5064     3.7639    13.9785 opls-116      1 RES       -0.847600
     836 HW1          7.3897     2.7752    14.0729 opls-117      1 RES        0.423800
     837 HW2          8.4804     3.9795    13.9097 opls-117      1 RES        0.423800
     838 OW          22.2731     5.6570    14.8304 opls-116      1 RES       -0.847600
     839 HW1         22.1984     4.8766    14.2096 opls-117      1 RES        0.423800
     840 HW2         21.3630     5.9104    15.1583 opls-117      1 RES        0.423800
     841 OW           4.8112    12.7907    24.9131 opls-116      1 RES       -0.847600
     842 HW1          5.1295    12.0680    25.5266 opls-117      1 RES        0.423800
     843 HW2          4.1578    13.3739    25.3958 opls-117      1 RES        0.423800
     844 OW          16.3329    19.4979     4.4750 opls-116      1 RES       -0.847600
     845 HW1         15.8697    19.9310     5.2483 opls-117      1 RES        0.423800
     846 HW2         16.8799    20.1800     3.9897 opls-117      1 RES        0.423800
     847 OW          11.8398    25.5575    24.2404 opls-116      1 RES       -0.847600
     848 HW1         11.8938    24.5974    24.5148 opls-117      1 RES        0.423800
     849 HW2         10.8874    25.7971    24.0516 opls-117      1 RES        0.423800
     850 OW          29.0704    12.7429    19.2418 opls-116      1 RES       -0.847600
     851 HW1         29.8586    12.1536    19.4188 opls-117      1 RES        0.423800
     852 HW2         28.2306    12.2032    19.3012 opls-117      1 RES        0.423800
     853 OW          18.5324    15.1162    22.3297 opls-116      1 RES       -0.847600
     854 HW1         18.0961    15.3608    23.1956 opls-117      1 RES        0.423800
     855 HW2         18.8267    15.9476    21.8583 opls-117      1 RES        0.423800
     856 OW          11.9807    25.8702    20.1012 opls-116      1 RES       -0.847600
     857 HW1         11.6279    25.2105    20.7646 opls-117      1 RES        0.423800
     858 HW2         12.8596    25.5499    19.7477 opls-117      1 RES        0.423800
     859 OW          19.9196    13.2290    23.6624 opls-116      1 RES       -0.847600
     860 HW1         19.5299    14.0017    24.1633 opls-117      1 RES        0.423800
     861 HW2         20.0034    13.4671    22.6948 opls-117      1 RES        0.423800
     862 OW           2.0050    24.4040     6.7167 opls-116      1 RES       -0.847600
     863 HW1          2.6183    23.8972     6.1108 opls-117      1 RES        0.423800
     864 HW2          2.4581    24.5608     7.5943 opls-117      1 RES        0.423800
     865 OW          29.2177    22.1195    22.5616 opls-116      1 RES       -0.847600
     866 HW1         30.0653    21.5889    22.5484 opls-117      1 RES        0.423800
     867 HW2         29.4336    23.0941    22.5018 opls-117      1 RES        0.423800
     868 OW          19.7967    13.6968     7.2647 opls-116      1 RES       -0.847600
     869 HW1         20.3680    14.3846     7.7125 opls-117      1 RES        0.423800
     870 HW2         18.8524    14.0232     7.2237 opls-117      1 RES        0.423800
     871 OW           8.8183     4.9588    21.8791 opls-116      1 RES       -0.847600
     872 HW1          8.4236     5.8774    21.8602 opls-117      1 RES        0.423800
     873 HW2          9.8078     5.0185    21.7471 opls-117      1 RES        0.423800
     874 OW          17.4220     4.1565     5.9689 opls-116      1 RES       -0.847600
     875 HW1         16.4253     4.0758     5.9654 opls-117      1 RES        0.423800
     876 HW2         17.6890     4.9668     6.4906 opls-117      1 RES        0.423800
     877 OW          26.2841    21.4305    23.1606 opls-116      1 RES       -0.847600
     878 HW1         26.9392    21.2136    22.4369 opls-117      1 RES        0.423800
     879 HW2         25.4562    21.8182    22.7555 opls-117      1 RES        0.423800
     880 OW          15.5502     8.1043     5.9858 opls-116      1 RES       -0.847600
     881 HW1         15.5657     7.2967     6.5752 opls-117      1 RES        0.423800
     882 HW2         15.0262     8.8311     6.4299 opls-117      1 RES        0.423800
     883 OW           4.9183     8.8968    20.8058 opls-116      1 RES       -0.847600
     884 HW1          5.7147     8.4162    21.1730 opls-117      1 RES        0.423800
     885 HW2          4.4272     8.2952    20.1758 opls-117      1 RES        0.423800
     886 OW           9.9200     5.1765    10.2197 opls-116      1 RES       -0.847600
     887 HW1         10.4074     4.8222     9.4216 opls-117      1 RES        0.423800
     888 HW2          9.8184     4.4490    10.8982 opls-117      1 RES        0.423800
     889 OW          22.7966     9.8071    13.1624 opls-116      1 RES       -0.847600
     890 HW1         22.5946     8.8282    13.1314 opls-117      1 RES        0.423800
     891 HW2         23.7870     9.9424    13.1908 opls-117      1 RES        0.423800
     892 OW          21.0334    26.5029     4.1365 opls-116      1 RES       -0.847600
     893 HW1         20.6739    25.5700     4.1561 opls-117      1 RES        0.423800
     894 HW2         21.9978    26.4941     4.4009 opls-117      1 RES        0.423800
     895 OW          22.3138    23.5856     4.0071 opls-116      1 RES       -0.847600
     896 HW1         21.7328    23.7535     4.8034 opls-117      1 RES        0.423800
     897 HW2         22.4455    24.4400     3.5044 opls-117      1 RES        0.423800
     898 OW          24.1383    25.8173    14.6332 opls-116      1 RES       -0.847600
     899 HW1         24.1358    26.6436    15.1963 opls-117      1 RES        0.423800
     900 HW2         24.9252    25.2503    14.8769 opls-117      1 RES        0.423800
     901 OW          21.1808    11.5714    24.7027 opls-116      1 RES       -0.847600
     902 HW1         21.9695    10.9777    24.5428 opls-117      1 RES        0.423800
     903 HW2         20.3473    11.0194    24.7254 opls-117      1 RES        0.423800
     904 OW           7.5718     4.6693    15.9875 opls-116      1 RES       -0.847600
     905 HW1          6.6083     4.4269    15.8738 opls-117      1 RES        0.423800
     906 HW2          7.6631     5.6645    16.0238 opls-117      1 RES        0.423800
     907 OW          13.6965    18.9286    12.5953 opls-116      1 RES       -0.847600
     908 HW1         14.2018    18.4398    13.3066 opls-117      1 RES        0.423800
     909 HW2         14.3290    19.4943    12.0662 opls-117      1 RES        0.423800
     910 OW           6.0396    25.9478     2.1820 opls-116      1 RES       -0.847600
     911 HW1          5.6571    26.6833     2.7412 opls-117      1 RES        0.423800
     912 HW2          5.4551    25.1392     2.2498 opls-117      1 RES        0.423800
     913 OW           2.5610     6.1381    25.3341 opls-116      1 RES       -0.847600
     914 HW1          1.9973     6.9544    25.4602 opls-117      1 RES        0.423800
     915 HW2          1.9996     5.3215    25.4681 opls-117      1 RES        0.423800
     916 OW          24.5165    19.2556    22.1479 opls-116      1 RES       -0.847600
     917 HW1         25.3284    19.7901    21.9131 opls-117      1 RES        0.423800
     918 HW2         23.8422    19.8493    22.5871 opls-117      1 RES        0.423800
     919 OW          25.5987    26.1329    28.9615 opls-116      1 RES       -0.847600
     920 HW1         25.8506    25.1975    28.7131 opls-117      1 RES        0.423800
     921 HW2         25.6773    26.7236    28.1584 opls-117      1 RES        0.423800
     922 OW          26.6773    15.5580    17.4834 opls-116      1 RES       -0.847600
     923 HW1         25.9592    16.2287    17.2974 opls-117      1 RES        0.423800
     924 HW2         26.2999    14.6353    17.4051 opls-117      1 RES        0.423800
     925 OW          14.7435    29.8514    17.8119 opls-116      1 RES       -0.847600
     926 HW1         14.7335    30.0699    18.7877 opls-117      1 RES        0.423800
     927 HW2         13.8533    30.0704    17.4122 opls-117      1 RES        0.423800
     928 OW          19.4603    22.1192    22.2230 opls-116      1 RES       -0.847600
     929 HW1         20.1223    22.8687    22.2212 opls-117      1 RES        0.423800
     930 HW2         18.5370    22.4902    22.3225 opls-117      1 RES        0.423800
     931 OW          15.1819    23.3930    15.9359 opls-116      1 RES       -0.847600
     932 HW1         14.5221    24.1120    16.1543 opls-117      1 RES        0.423800
     933 HW2         14.7396    22.6944    15.3735 opls-117      1 RES        0.423800
     934 OW          21.1295     8.0781    21.3315 opls-116      1 RES       -0.847600
     935 HW1         20.1408     8.0330    21.4748 opls-117      1 RES        0.423800
     936 HW2         21.4118     9.0343    21.2544 opls-117      1 RES        0.423800
     937 OW          17.6197     6.4429    19.0571 opls-116      1 RES       -0.847600
     938 HW1         17.1972     6.6352    18.1714 opls-117      1 RES        0.423800
     939 HW2         17.3562     5.5272    19.3604 opls-117      1 RES        0.423800
     940 OW          17.0506    11.7589    10.5703 opls-116      1 RES       -0.847600
     941 HW1         16.7160    10.8166    10.5596 opls-117      1 RES        0.423800
     942 HW2         16.2793    12.3876    10.4713 opls-117      1 RES        0.423800
     943 OW          14.6515    15.4711     1.9998 opls-116      1 RES       -0.847600
     944 HW1         15.6495    15.5348     1.9996 opls-117      1 RES        0.423800
     945 HW2         14.3789    14.5089     1.9998 opls-117      1 RES        0.423800
     946 OW          30.0727    20.2827    12.0137 opls-116      1 RES       -0.847600
     947 HW1         30.0600    19.4302    12.5362 opls-117      1 RES        0.423800
     948 HW2         29.1812    20.7302    12.0842 opls-117      1 RES        0.423800
     949 OW           6.6381    13.7596    29.7535 opls-116      1 RES       -0.847600
     950 HW1          7.4900    14.0170    29.2973 opls-117      1 RES        0.423800
     951 HW2          6.1691    14.5831    30.0729 opls-117      1 RES        0.423800
     952 OW           3.0802    26.9030     5.5375 opls-116      1 RES       -0.847600
     953 HW1          3.9549    27.3854     5.4911 opls-117      1 RES        0.423800
     954 HW2          3.2413    25.9166     5.5035 opls-117      1 RES        0.423800
     955 OW          19.5739    26.2785     2.3876 opls-116      1 RES       -0.847600
     956 HW1         20.4090    25.8921     1.9962 opls-117      1 RES        0.423800
     957 HW2         18.7830    25.7582     2.0655 opls-117      1 RES        0.423800
     958 OW           7.5722    24.7602    22.6271 opls-116      1 RES       -0.847600
     959 HW1          6.6537    25.1180    22.4587 opls-117      1 RES        0.423800
     960 HW2          7.5882    23.7790    22.4345 opls-117      1 RES        0.423800
     961 OW           2.0190    14.0381    15.1657 opls-116      1 RES       -0.847600
     962 HW1          1.9026    14.6724    14.4014 opls-117      1 RES        0.423800
     963 HW2          2.0889    14.5541    16.0194 opls-117      1 RES        0.423800
     964 OW           4.4127    28.8121    24.8591 opls-116      1 RES       -0.847600
     965 HW1          3.5115    28.3988    24.7286 opls-117      1 RES        0.423800
     966 HW2          4.4455    29.2659    25.7496 opls-117      1 RES        0.423800
     967 OW          21.4809    14.2089    25.1564 opls-116      1 RES       -0.847600
     968 HW1         21.9542    13.6205    24.5008 opls-117      1 RES        0.423800
     969 HW2         20.9596    13.6437    25.7958 opls-117      1 RES        0.423800
     970 OW          25.3796     2.6550    28.5783 opls-116      1 RES       -0.847600
     971 HW1         25.6614     3.5019    29.0293 opls-117      1 RES        0.423800
     972 HW2         25.0656     2.0000    29.2656 opls-117      1 RES        0.423800
     973 OW          27.5340    18.4580    11.3130 opls-116      1 RES       -0.847600
     974 HW1         27.4415    17.5556    10.8923 opls-117      1 RES        0.423800
     975 HW2         28.4607    18.8025    11.1626 opls-117      1 RES        0.423800
     976 OW          24.4753    15.8930     6.4745 opls-116      1 RES       -0.847600
     977 HW1         23.5701    15.4692     6.4440 opls-117      1 RES        0.423800
     978 HW2         24.8969    15.8444     5.5690 opls-117      1 RES        0.423800
     979 OW          27.3806    23.4783    12.1208 opls-116      1 RES       -0.847600
     980 HW1         27.3990    24.0689    11.3140 opls-117      1 RES        0.423800
     981 HW2         26.9398    22.6111    11.8890 opls-117      1 RES        0.423800
     982 OW           9.9869    26.4723    19.3933 opls-116      1 RES       -0.847600
     983 HW1         10.0725    25.5474    19.0228 opls-117      1 RES        0.423800
     984 HW2          9.0191    26.7047    19.4892 opls-117      1 RES        0.423800
     985 OW           4.4593    27.0732    13.8570 opls-116      1 RES       -0.847600
     986 HW1          3.8110    26.9314    14.6051 opls-117      1 RES        0.423800
     987 HW2          4.6328    26.2025    13.3968 opls-117      1 RES        0.423800
     988 OW          10.4864    15.3710    13.6501 opls-116      1 RES       -0.847600
     989 HW1         11.2809    15.9629    13.7857 opls-117      1 RES        0.423800
     990 HW2          9.6620    15.9320    13.5739 opls-117      1 RES        0.423800
     991 OW          18.9569     3.3501    19.9391 opls-116      1 RES       -0.847600
     992 HW1         19.0165     3.8470    20.8048 opls-117      1 RES        0.423800
     993 HW2         18.7478     2.3891    20.1201 opls-117      1 RES        0.423800
     994 OW          25.9327    25.8982    12.8601 opls-116      1 RES       -0.847600
     995 HW1         26.7049    26.1860    12.2935 opls-117      1 RES        0.423800
     996 HW2         25.8739    24.8999    12.8612 opls-117      1 RES        0.423800
     997 OW          10.7686     6.0576    15.6434 opls-116      1 RES       -0.847600
     998 HW1         10.7259     6.1009    16.6416 opls-117      1 RES        0.423800
     999 HW2         10.0339     5.4706    15.3035 opls-117      1 RES        0.423800
    1000 OW          16.3286    11.3718    17.8288 opls-116      1 RES       -0.847600
    1001 HW1         15.8080    10.5823    17.5039 opls-117      1 RES        0.423800
    1002 HW2         16.1500    11.5109    18.8029 opls-117      1 RES        0.423800
    1003 OW          29.7398    18.1325    19.9412 opls-116      1 RES       -0.847600
    1004 HW1         30.0722    18.8086    20.5988 opls-117      1 RES        0.423800
    1005 HW2         30.0829    18.3577    19.0293 opls-117      1 RES        0.423800
    1006 OW          11.0874    25.7861    26.2951 opls-116      1 RES       -0.847600
    1007 HW1         10.2989    25.2119    26.5154 opls-117      1 RES        0.423800
    1008 HW2         11.2074    26.4758    27.0092 opls-117      1 RES        0.423800
    1009 OW          12.0688    21.9743     6.2429 opls-116      1 RES       -0.847600
    1010 HW1         11.7299    21.1510     6.6982 opls-117      1 RES        0.423800
    1011 HW2         12.7627    21.7208     5.5690 opls-117      1 RES        0.423800
    1012 OW          20.9263     4.9244    30.0700 opls-116      1 RES       -0.847600
    1013 HW1         21.5918     4.1787    30.0392 opls-117      1 RES        0.423800
    1014 HW2         20.2630     4.8100    29.3304 opls-117      1 RES        0.423800
    1015 OW          20.8845    16.6295     6.3948 opls-116      1 RES       -0.847600
    1016 HW1         21.5184    17.3903     6.5334 opls-117      1 RES        0.423800
    1017 HW2         21.3967    15.7716     6.3560 opls-117      1 RES        0.423800
    1018 OW          19.9017    30.0766    20.8294 opls-116      1 RES       -0.847600
    1019 HW1         19.4011    30.0385    21.6942 opls-117      1 RES        0.423800
    1020 HW2         20.6581    29.4229    20.8530 opls-117      1 RES        0.423800
    1021 OW          15.3575    11.1779    24.5929 opls-116      1 RES       -0.847600
    1022 HW1         16.0947    11.8536    24.6038 opls-117      1 RES        0.423800
    1023 HW2         15.6916    10.3142    24.9701 opls-117      1 RES        0.423800
    1024 OW           3.1574    11.0121     5.6624 opls-116      1 RES       -0.847600
    1025 HW1          3.4416    10.0695     5.4873 opls-117      1 RES        0.423800
    1026 HW2          2.4904    11.0262     6.4073 opls-117      1 RES        0.423800
    1027 OW           8.2586     9.2228     2.1500 opls-116      1 RES       -0.847600
    1028 HW1          8.9681     9.9160     2.0227 opls-117      1 RES        0.423800
    1029 HW2          8.6445     8.3159     1.9806 opls-117      1 RES        0.423800
    1030 OW          25.6494     8.3743    10.2927 opls-116      1 RES       -0.847600
    1031 HW1         26.0746     7.4693    10.3049 opls-117      1 RES        0.423800
    1032 HW2         24.6545     8.2754    10.3123 opls-117      1 RES        0.423800
    1033 OW           2.9357     8.2641    28.8174 opls-116      1 RES       -0.847600
    1034 HW1          2.5727     7.4341    28.3938 opls-117      1 RES        0.423800
    1035 HW2          3.6496     8.6512    28.2339 opls-117      1 RES        0.423800
    1036 OW           1.9592    19.4005     9.6122 opls-116      1 RES       -0.847600
    1037 HW1          2.0292    18.4390     9.8776 opls-117      1 RES        0.423800
    1038 HW2          2.0024    19.9758    10.4290 opls-117      1 RES        0.423800
    1039 OW           6.9852    29.6433    23.3095 opls-116      1 RES       -0.847600
    1040 HW1          7.9301    29.5335    23.6181 opls-117      1 RES        0.423800
    1041 HW2          6.3626    29.4551    24.0691 opls-117      1 RES        0.423800
    1042 OW           5.8382    30.0964    19.1582 opls-116      1 RES       -0.847600
    1043 HW1          5.0496    29.9069    19.7432 opls-117      1 RES        0.423800
    1044 HW2          6.0714    29.2755    18.6369 opls-117      1 RES        0.423800
    1045 OW           3.1231    26.9860     8.8218 opls-116      1 RES       -0.847600
    1046 HW1          3.0616    26.6570     7.8795 opls-117      1 RES        0.423800
    1047 HW2          2.2138    26.9772     9.2379 opls-117      1 RES        0.423800
    1048 OW          18.2002     9.1373    29.8576 opls-116      1 RES       -0.847600
    1049 HW1         18.0425     9.1978    28.8719 opls-117      1 RES        0.423800
    1050 HW2         18.6543     8.2721    30.0700 opls-117      1 RES        0.423800
    1051 OW           9.8192    22.9986    27.3286 opls-116      1 RES       -0.847600
    1052 HW1         10.7839    23.2058    27.4908 opls-117      1 RES        0.423800
    1053 HW2          9.6181    23.0897    26.3533 opls-117      1 RES        0.423800
    1054 OW           7.3965    16.7898     2.8299 opls-116      1 RES       -0.847600
    1055 HW1          6.5874    16.2501     2.5972 opls-117      1 RES        0.423800
    1056 HW2          7.7930    17.1728     1.9955 opls-117      1 RES        0.423800
    1057 OW          11.3431    27.4198    17.5549 opls-116      1 RES       -0.847600
    1058 HW1         11.1537    27.9706    16.7420 opls-117      1 RES        0.423800
    1059 HW2         11.2198    27.9806    18.3736 opls-117      1 RES        0.423800
    1060 OW           7.9062    16.5536    15.5696 opls-116      1 RES       -0.847600
    1061 HW1          8.5920    17.1048    15.0945 opls-117      1 RES        0.423800
    1062 HW2          8.2711    15.6373    15.7347 opls-117      1 RES        0.423800
    1063 OW           2.8432    21.9865    13.8987 opls-116      1 RES       -0.847600
    1064 HW1          2.2200    21.2071    13.8341 opls-117      1 RES        0.423800
    1065 HW2          2.3192    22.8369    13.8519 opls-117      1 RES        0.423800
    1066 OW          29.1920    22.1327    10.3895 opls-116      1 RES       -0.847600
    1067 HW1         29.1394    23.1305    10.3495 opls-117      1 RES        0.423800
    1068 HW2         28.2690    21.7489    10.3619 opls-117      1 RES        0.423800
    1069 OW          18.7378    11.2149     6.9731 opls-116      1 RES       -0.847600
    1070 HW1         18.1184    11.9870     6.8312 opls-117      1 RES        0.423800
    1071 HW2         19.6843    11.5297     6.9034 opls-117      1 RES        0.423800
    1072 OW          10.6575    17.8065    14.8110 opls-116      1 RES       -0.847600
    1073 HW1         10.7541    18.5645    14.1659 opls-117      1 RES        0.423800
    1074 HW2         10.4169    18.1650    15.7129 opls-117      1 RES        0.423800
    1075 OW           4.4632    27.2690    10.9673 opls-116      1 RES       -0.847600
    1076 HW1          3.5609    26.8379    10.9709 opls-117      1 RES        0.423800
    1077 HW2          4.3575    28.2633    10.9550 opls-117      1 RES        0.423800
    1078 OW           7.3847    18.6436    29.2788 opls-116      1 RES       -0.847600
    1079 HW1          8.2119    18.5227    28.7302 opls-117      1 RES        0.423800
    1080 HW2          7.5904    19.2203    30.0695 opls-117      1 RES        0.423800
    1081 OW          13.8960     3.7529     7.1221 opls-116      1 RES       -0.847600
    1082 HW1         13.1179     3.3440     6.6452 opls-117      1 RES        0.423800
    1083 HW2         14.7035     3.1763     6.9978 opls-117      1 RES        0.423800
    1084 OW           5.4092    18.6945    21.0432 opls-116      1 RES       -0.847600
    1085 HW1          4.5453    19.0898    21.3555 opls-117      1 RES        0.423800
    1086 HW2          5.9088    18.3244    21.8264 opls-117      1 RES        0.423800
    1087 OW           6.9695     3.6668    17.9063 opls-116      1 RES       -0.847600
    1088 HW1          6.3817     2.8578    17.9111 opls-117      1 RES        0.423800
    1089 HW2          7.9281     3.3823    17.9055 opls-117      1 RES        0.423800
    1090 OW          24.9178     6.9157    22.1842 opls-116      1 RES       -0.847600
    1091 HW1         25.5004     6.4244    22.8316 opls-117      1 RES        0.423800
    1092 HW2         25.1098     6.5983    21.2555 opls-117      1 RES        0.423800
    1093 OW          22.0946     3.7403    10.5214 opls-116      1 RES       -0.847600
    1094 HW1         22.7254     3.9238    11.2753 opls-117      1 RES        0.423800
    1095 HW2         22.5773     3.8397     9.6513 opls-117      1 RES        0.423800
    1096 OW          11.0733     6.4429    20.6475 opls-116      1 RES       -0.847600
    1097 HW1         10.2658     7.0328    20.6473 opls-117      1 RES        0.423800
    1098 HW2         11.8986     7.0076    20.6475 opls-117      1 RES        0.423800
    1099 OW          13.8831    18.7558    18.7341 opls-116      1 RES       -0.847600
    1100 HW1         14.0900    19.7336    18.7005 opls-117      1 RES        0.423800
    1101 HW2         12.8919    18.6255    18.7595 opls-117      1 RES        0.423800
    1102 OW          13.0494    22.8483    23.8436 opls-116      1 RES       -0.847600
    1103 HW1         12.7924    21.8896    23.7219 opls-117      1 RES        0.423800
    1104 HW2         14.0127    22.9043    24.1062 opls-117      1 RES        0.423800
    1105 OW          25.7225    11.7894    11.9389 opls-116      1 RES       -0.847600
    1106 HW1         26.3879    11.5020    12.6278 opls-117      1 RES        0.423800
    1107 HW2         25.0633    11.0534    11.7847 opls-117      1 RES        0.423800
    1108 OW           4.1433    23.1962    12.6021 opls-116      1 RES       -0.847600
    1109 HW1          5.1162    22.9660    12.6260 opls-117      1 RES        0.423800
    1110 HW2          4.0226    24.1588    12.8450 opls-117      1 RES        0.423800
    1111 OW          25.4894    12.1685    27.3024 opls-116      1 RES       -0.847600
    1112 HW1         25.3496    13.0310    26.8161 opls-117      1 RES        0.423800
    1113 HW2         25.8513    11.4839    26.6697 opls-117      1 RES        0.423800
    1114 OW           6.3119    16.6711     7.0533 opls-116      1 RES       -0.847600
    1115 HW1          5.8021    16.9660     7.8615 opls-117      1 RES        0.423800
    1116 HW2          5.7576    16.0269     6.5262 opls-117      1 RES        0.423800
    1117 OW          28.5844    10.5113    15.0508 opls-116      1 RES       -0.847600
    1118 HW1         27.8167    10.0211    15.4635 opls-117      1 RES        0.423800
    1119 HW2         28.9935     9.9470    14.3338 opls-117      1 RES        0.423800
    1120 OW          28.1337     8.0970    24.8247 opls-116      1 RES       -0.847600
    1121 HW1         27.1446     8.0004    24.7134 opls-117      1 RES        0.423800
    1122 HW2         28.5429     7.1955    24.9655 opls-117      1 RES        0.423800
    1123 OW          17.6156    15.1668    13.1532 opls-116      1 RES       -0.847600
    1124 HW1         17.5550    14.3468    13.7223 opls-117      1 RES        0.423800
    1125 HW2         17.6217    15.9784    13.7374 opls-117      1 RES        0.423800
    1126 OW          21.2634    10.0543     9.1196 opls-116      1 RES       -0.847600
    1127 HW1         21.4848     9.0809     9.0610 opls-117      1 RES        0.423800
    1128 HW2         21.0532    10.4039     8.2066 opls-117      1 RES        0.423800
    1129 OW           5.4027    16.5602    10.5040 opls-116      1 RES       -0.847600
    1130 HW1          5.8648    17.1178    11.1936 opls-117      1 RES        0.423800
    1131 HW2          5.2994    15.6259    10.8453 opls-117      1 RES        0.423800
    1132 OW           4.2697    29.0457    22.1165 opls-116      1 RES       -0.847600
    1133 HW1          4.8795    28.5400    22.7268 opls-117      1 RES        0.423800
    1134 HW2          4.6702    29.9384    21.9099 opls-117      1 RES        0.423800
    1135 OW          13.9343    21.4254    27.2549 opls-116      1 RES       -0.847600
    1136 HW1         14.4968    22.1924    26.9462 opls-117      1 RES        0.423800
    1137 HW2         13.1319    21.3415    26.6640 opls-117      1 RES        0.423800
    1138 OW          19.6991    17.3577     4.6908 opls-116      1 RES       -0.847600
    1139 HW1         18.9469    16.7805     4.3731 opls-117      1 RES        0.423800
    1140 HW2         20.0844    17.8595     3.9164 opls-117      1 RES        0.423800
    1141 OW          25.7193     6.4942    25.4474 opls-116      1 RES       -0.847600
    1142 HW1         25.2280     7.0895    26.0831 opls-117      1 RES        0.423800
    1143 HW2         25.9949     5.6571    25.9200 opls-117      1 RES        0.423800
    1144 OW           5.9335     2.0246     8.2674 opls-116      1 RES       -0.847600
    1145 HW1          5.8410     2.0000     9.2628 opls-117      1 RES        0.423800
    1146 HW2          6.9020     2.0775     8.0239 opls-117      1 RES        0.423800
    1147 OW          12.8340    15.8705     4.5737 opls-116      1 RES       -0.847600
    1148 HW1         12.0330    15.6563     4.0147 opls-117      1 RES        0.423800
    1149 HW2         13.6353    15.4025     4.2012 opls-117      1 RES        0.423800
    1150 OW          27.8195     9.3834    18.0842 opls-116      1 RES       -0.847600
    1151 HW1         26.9876     8.8347    18.0012 opls-117      1 RES        0.423800
    1152 HW2         27.5836    10.2994    18.4088 opls-117      1 RES        0.423800
    1153 OW          15.5538    16.1397     7.7382 opls-116      1 RES       -0.847600
    1154 HW1         15.1337    17.0463     7.7780 opls-117      1 RES        0.423800
    1155 HW2         14.8383    15.4419     7.7044 opls-117      1 RES        0.423800
    1156 OW          29.9542    11.2336    23.1907 opls-116      1 RES       -0.847600
    1157 HW1         28.9954    11.0768    23.4273 opls-117      1 RES        0.423800
    1158 HW2         30.0734    12.1808    22.8930 opls-117      1 RES        0.423800
    1159 OW          14.0731    12.1292    14.2987 opls-116      1 RES       -0.847600
    1160 HW1         13.7741    12.5211    15.1687 opls-117      1 RES        0.423800
    1161 HW2         13.3731    11.5018    13.9576 opls-117      1 RES        0.423800
    1162 OW           6.9792     7.8535     5.4406 opls-116      1 RES       -0.847600
    1163 HW1          7.5512     8.6440     5.2215 opls-117      1 RES        0.423800
    1164 HW2          6.0182     8.0856     5.2900 opls-117      1 RES        0.423800
    1165 OW          13.5696    26.6694    12.1905 opls-116      1 RES       -0.847600
    1166 HW1         12.7845    26.1429    12.5166 opls-117      1 RES        0.423800
    1167 HW2         13.6768    27.4903    12.7514 opls-117      1 RES        0.423800
    1168 OW          21.2318    21.5547    16.7330 opls-116      1 RES       -0.847600
    1169 HW1         20.4293    22.0849    17.0066 opls-117      1 RES        0.423800
    1170 HW2         21.7773    21.3345    17.5417 opls-117      1 RES        0.423800
    1171 OW          21.6295     2.8547    13.5549 opls-116      1 RES       -0.847600
    1172 HW1         21.5509     2.2279    14.3302 opls-117      1 RES        0.423800
    1173 HW2         22.3512     2.5359    12.9404 opls-117      1 RES        0.423800
    1174 OW          23.1759    21.6737    21.3089 opls-116      1 RES       -0.847600
    1175 HW1         24.1096    21.4128    21.0638 opls-117      1 RES        0.423800
    1176 HW2         23.1402    21.9115    22.2796 opls-117      1 RES        0.423800
    1177 OW          27.5772     2.3338    18.7390 opls-116      1 RES       -0.847600
    1178 HW1         27.7822     3.1161    19.3272 opls-117      1 RES        0.423800
    1179 HW2         27.4867     2.6431    17.7923 opls-117      1 RES        0.423800
    1180 OW          22.3720     1.9935    19.4748 opls-116      1 RES       -0.847600
    1181 HW1         23.1718     2.4581    19.0947 opls-117      1 RES        0.423800
    1182 HW2         21.6787     2.6709    19.7207 opls-117      1 RES        0.423800
    1183 OW          29.1576    19.6087     5.5789 opls-116      1 RES       -0.847600
    1184 HW1         28.6718    20.3676     5.1452 opls-117      1 RES        0.423800
    1185 HW2         30.0730    19.5298     5.1841 opls-117      1 RES        0.423800
    1186 OW           7.5408    20.8709    17.9978 opls-116      1 RES       -0.847600
    1187 HW1          8.2771    20.5259    18.5798 opls-117      1 RES        0.423800
    1188 HW2          7.9165    21.5153    17.3317 opls-117      1 RES        0.423800
    1189 OW          10.1182    29.8711    27.5130 opls-116      1 RES       -0.847600
    1190 HW1          9.7846    29.0659    27.0227 opls-117      1 RES        0.423800
    1191 HW2          9.5089    30.0699    28.2807 opls-117      1 RES        0.423800
    1192 OW           4.2274    19.1852     4.3896 opls-116      1 RES       -0.847600
    1193 HW1          3.9657    18.2229     4.3156 opls-117      1 RES        0.423800
    1194 HW2          3.4555    19.7620     4.1224 opls-117      1 RES        0.423800
    1195 OW          10.2676    11.1859    18.5864 opls-116      1 RES       -0.847600
    1196 HW1         10.5518    12.1358    18.7161 opls-117      1 RES        0.423800
    1197 HW2          9.2711    11.1430    18.5141 opls-117      1 RES        0.423800
    1198 OW          18.2881    13.9445     5.0988 opls-116      1 RES       -0.847600
    1199 HW1         19.0850    13.3422     5.1449 opls-117      1 RES        0.423800
    1200 HW2         18.1023    14.1790     4.1446 opls-117      1 RES        0.423800
    1201 OW           8.5523    16.8102     5.3386 opls-116      1 RES       -0.847600
    1202 HW1          8.0073    17.4929     5.8253 opls-117      1 RES        0.423800
    1203 HW2          7.9436    16.1711     4.8686 opls-117      1 RES        0.423800
    1204 OW           8.4630     2.1152    15.8763 opls-116      1 RES       -0.847600
    1205 HW1          7.5230     2.0419    16.2094 opls-117      1 RES        0.423800
    1206 HW2          9.0971     2.0119    16.6426 opls-117      1 RES        0.423800
    1207 OW          20.0158    23.6551     2.2367 opls-116      1 RES       -0.847600
    1208 HW1         20.9781    23.3835     2.2512 opls-117      1 RES        0.423800
    1209 HW2         19.5604    23.3126     3.0584 opls-117      1 RES        0.423800
    1210 OW          28.2520    29.9962    26.6094 opls-116      1 RES       -0.847600
    1211 HW1         27.6724    29.2075    26.8145 opls-117      1 RES        0.423800
    1212 HW2         29.2062    29.7026    26.5516 opls-117      1 RES        0.423800
    1213 OW          21.5737    16.8355    11.0748 opls-116      1 RES       -0.847600
    1214 HW1         22.0550    15.9674    10.9529 opls-117      1 RES        0.423800
    1215 HW2         20.5918    16.6638    11.1548 opls-117      1 RES        0.423800
    1216 OW           6.6054    19.1699    19.0311 opls-116      1 RES       -0.847600
    1217 HW1          6.4639    18.9427    18.0675 opls-117      1 RES        0.423800
    1218 HW2          6.9560    18.3678    19.5146 opls-117      1 RES        0.423800
    1219 OW          21.6082    27.6495    22.6219 opls-116      1 RES       -0.847600
    1220 HW1         20.7744    28.1988    22.6769 opls-117      1 RES        0.423800
    1221 HW2         22.4065    28.2499    22.6677 opls-117      1 RES        0.423800
    1222 OW          22.3606    20.6522     8.2325 opls-116      1 RES       -0.847600
    1223 HW1         22.4572    21.5843     8.5816 opls-117      1 RES        0.423800
    1224 HW2         22.7332    20.6031     7.3058 opls-117      1 RES        0.423800
    1225 OW          23.6160    22.2212    18.8740 opls-116      1 RES       -0.847600
    1226 HW1         23.9128    21.6982    18.0750 opls-117      1 RES        0.423800
    1227 HW2         22.9321    22.8956    18.5957 opls-117      1 RES        0.423800
    1228 OW          10.1282    24.2449    22.0519 opls-116      1 RES       -0.847600
    1229 HW1         10.9547    24.0868    22.5922 opls-117      1 RES        0.423800
    1230 HW2          9.7199    25.1189    22.3152 opls-117      1 RES        0.423800
    1231 OW          28.6443    13.0435    21.4551 opls-116      1 RES       -0.847600
    1232 HW1         28.2926    12.1192    21.6030 opls-117      1 RES        0.423800
    1233 HW2         28.1592    13.6840    22.0505 opls-117      1 RES        0.423800
    1234 OW          28.5540    28.7376     9.8345 opls-116      1 RES       -0.847600
    1235 HW1         28.2945    29.5276     9.2791 opls-117      1 RES        0.423800
    1236 HW2         28.8901    28.0077     9.2393 opls-117      1 RES        0.423800
    1237 OW          15.2896    22.6920    22.0339 opls-116      1 RES       -0.847600
    1238 HW1         15.4484    23.5273    22.5603 opls-117      1 RES        0.423800
    1239 HW2         14.3769    22.7233    21.6264 opls-117      1 RES        0.423800
    1240 OW          16.9428    11.9542    13.3203 opls-116      1 RES       -0.847600
    1241 HW1         16.0851    11.5346    13.6175 opls-117      1 RES        0.423800
    1242 HW2         16.7538    12.6306    12.6084 opls-117      1 RES        0.423800
    1243 OW           2.0883     4.1801    19.3806 opls-116      1 RES       -0.847600
    1244 HW1          2.0409     4.2842    18.3872 opls-117      1 RES        0.423800
    1245 HW2          2.0267     5.0796    19.8133 opls-117      1 RES        0.423800
    1246 OW          28.2979    11.7525    10.3738 opls-116      1 RES       -0.847600
    1247 HW1         28.1111    12.7252    10.2364 opls-117      1 RES        0.423800
    1248 HW2         29.2861    11.5990    10.3700 opls-117      1 RES        0.423800
    1249 OW          18.9962     9.3236     8.9630 opls-116      1 RES       -0.847600
    1250 HW1         18.1223     9.6794     9.2943 opls-117      1 RES        0.423800
    1251 HW2         19.3970     8.7253     9.6568 opls-117      1 RES        0.423800
    1252 OW          23.7465    24.2350     5.5469 opls-116      1 RES       -0.847600
    1253 HW1         24.7312    24.1624     5.7056 opls-117      1 RES        0.423800
    1254 HW2         23.5203    25.1715     5.2789 opls-117      1 RES        0.423800
    1255 OW           8.4649     9.9095    15.2136 opls-116      1 RES       -0.847600
    1256 HW1          8.7267    10.8622    15.0596 opls-117      1 RES        0.423800
    1257 HW2          7.7831     9.6372    14.5346 opls-117      1 RES        0.423800
    1258 OW          15.9858    22.7444    10.5424 opls-116      1 RES       -0.847600
    1259 HW1         16.9564    22.9492    10.6687 opls-117      1 RES        0.423800
    1260 HW2         15.4889    23.5906    10.3499 opls-117      1 RES        0.423800
    1261 OW          10.7662    13.9735     8.8294 opls-116      1 RES       -0.847600
    1262 HW1          9.9018    14.3712     9.1369 opls-117      1 RES        0.423800
    1263 HW2         10.7641    13.9020     7.8320 opls-117      1 RES        0.423800
    1264 OW          18.6706     8.6316    16.5063 opls-116      1 RES       -0.847600
    1265 HW1         18.2252     7.7364    16.5188 opls-117      1 RES        0.423800
    1266 HW2         17.9753     9.3501    16.5228 opls-117      1 RES        0.423800
    1267 OW          28.3550     7.7216    12.7035 opls-116      1 RES       -0.847600
    1268 HW1         28.3068     6.9454    12.0749 opls-117      1 RES        0.423800
    1269 HW2         28.8287     7.4446    13.5395 opls-117      1 RES        0.423800
    1270 OW          17.4639    12.7333    20.6223 opls-116      1 RES       -0.847600
    1271 HW1         17.4325    11.7349    20.5758 opls-117      1 RES        0.423800
    1272 HW2         16.6338    13.0726    21.0648 opls-117      1 RES        0.423800
    1273 OW          20.2076    10.4046     4.0392 opls-116      1 RES       -0.847600
    1274 HW1         19.6162     9.6045     3.9386 opls-117      1 RES        0.423800
    1275 HW2         21.1595    10.1361     3.8916 opls-117      1 RES        0.423800
    1276 OW           7.9729    16.6779    30.0718 opls-116      1 RES       -0.847600
    1277 HW1          7.5366    16.2156    29.2998 opls-117      1 RES        0.423800
    1278 HW2          8.9527    16.4782    30.0694 opls-117      1 RES        0.423800
    1279 OW           8.4596    23.2411     8.8528 opls-116      1 RES       -0.847600
    1280 HW1          9.0320    22.4441     9.0451 opls-117      1 RES        0.423800
    1281 HW2          9.0298    23.9845     8.5033 opls-117      1 RES        0.423800
    1282 OW          28.0840     8.9943     3.9866 opls-116      1 RES       -0.847600
    1283 HW1         27.2287     8.4905     3.8655 opls-117      1 RES        0.423800
    1284 HW2         28.8505     8.3522     3.9970 opls-117      1 RES        0.423800
    1285 OW          27.4328    17.0177    20.4493 opls-116      1 RES       -0.847600
    1286 HW1         27.5057    16.0345    20.6168 opls-117      1 RES        0.423800
    1287 HW2         26.8072    17.4238    21.1155 opls-117      1 RES        0.423800
    1288 OW          15.9328    27.5920    21.6453 opls-116      1 RES       -0.847600
    1289 HW1         16.6655    27.8434    21.0129 opls-117      1 RES        0.423800
    1290 HW2         15.6008    26.6752    21.4233 opls-117      1 RES        0.423800
    1291 OW          24.6016    17.3859    23.3748 opls-116      1 RES       -0.847600
    1292 HW1         24.7540    16.5268    23.8633 opls-117      1 RES        0.423800
    1293 HW2         23.6286    17.4819    23.1649 opls-117      1 RES        0.423800
    1294 OW          29.0699    11.6457    26.1583 opls-116      1 RES       -0.847600
    1295 HW1         28.3815    11.2842    25.5295 opls-117      1 RES        0.423800
    1296 HW2         29.4977    12.4547    25.7550 opls-117      1 RES        0.423800
    1297 OW           3.1048    18.5683    29.7487 opls-116      1 RES       -0.847600
    1298 HW1          4.0837    18.6995    29.5921 opls-117      1 RES        0.423800
    1299 HW2          2.7009    19.4247    30.0701 opls-117      1 RES        0.423800
    1300 OW           3.2663     2.8235     9.0759 opls-116      1 RES       -0.847600
    1301 HW1          4.0983     3.2076     8.6757 opls-117      1 RES        0.423800
    1302 HW2          2.7101     2.4097     8.3552 opls-117      1 RES        0.423800
    1303 OW          26.2766    17.3371     6.8046 opls-116      1 RES       -0.847600
    1304 HW1         25.5432    17.8097     6.3160 opls-117      1 RES        0.423800
    1305 HW2         27.1616    17.6846     6.4946 opls-117      1 RES        0.423800
    1306 OW          23.0567    28.4285    10.5656 opls-116      1 RES       -0.847600
    1307 HW1         22.8646    28.1699    11.5123 opls-117      1 RES        0.423800
    1308 HW2         22.6268    29.3092    10.3668 opls-117      1 RES        0.423800
    1309 OW           4.6555     6.2050    26.2629 opls-116      1 RES       -0.847600
    1310 HW1          4.9779     6.6861    25.4476 opls-117      1 RES        0.423800
    1311 HW2          5.1268     5.3263    26.3395 opls-117      1 RES        0.423800
    1312 OW          13.3336    19.5908     5.2409 opls-116      1 RES       -0.847600
    1313 HW1         12.7567    19.0813     5.8794 opls-117      1 RES        0.423800
    1314 HW2         13.5108    19.0304     4.4318 opls-117      1 RES        0.423800
    1315 OW           9.3351     9.4775    25.5288 opls-116      1 RES       -0.847600
    1316 HW1          8.9308     9.6603    26.4250 opls-117      1 RES        0.423800
    1317 HW2          9.9479    10.2276    25.2803 opls-117      1 RES        0.423800
    1318 OW          12.1835    17.1723    27.6115 opls-116      1 RES       -0.847600
    1319 HW1         12.6723    18.0334    27.7520 opls-117      1 RES        0.423800
    1320 HW2         11.2035    17.3545    27.5321 opls-117      1 RES        0.423800
    1321 OW          21.5300    23.0813     6.8879 opls-116      1 RES       -0.847600
    1322 HW1         22.5281    23.0326     6.9274 opls-117      1 RES        0.423800
    1323 HW2         21.1502    22.1564     6.9073 opls-117      1 RES        0.423800
    1324 OW          14.1993     7.4624    27.1980 opls-116      1 RES       -0.847600
    1325 HW1         15.0877     7.1041    26.9109 opls-117      1 RES        0.423800
    1326 HW2         13.8034     8.0047    26.4569 opls-117      1 RES        0.423800
    1327 OW          27.3733     3.5676    25.4397 opls-116      1 RES       -0.847600
    1328 HW1         27.7935     4.3949    25.8126 opls-117      1 RES        0.423800
    1329 HW2         26.9090     3.7872    24.5817 opls-117      1 RES        0.423800
    1330 OW           5.1033    26.9695    29.1672 opls-116      1 RES       -0.847600
    1331 HW1          5.5978    27.8213    28.9937 opls-117      1 RES        0.423800
    1332 HW2          5.3895    26.2771    28.5049 opls-117      1 RES        0.423800
    1333 OW          21.5382    21.1850    10.7337 opls-116      1 RES       -0.847600
    1334 HW1         20.8845    20.9924    10.0019 opls-117      1 RES        0.423800
    1335 HW2         21.8818    22.1190    10.6364 opls-117      1 RES        0.423800
    1336 OW          14.7343    20.0593    25.2221 opls-116      1 RES       -0.847600
    1337 HW1         13.9757    20.2580    24.6015 opls-117      1 RES        0.423800
    1338 HW2         14.3805    19.6355    26.0559 opls-117      1 RES        0.423800
    1339 OW           9.4942     6.4926    13.1935 opls-116      1 RES       -0.847600
    1340 HW1          8.8461     7.2176    13.4266 opls-117      1 RES        0.423800
    1341 HW2          9.0125     5.7534    12.7229 opls-117      1 RES        0.423800
    1342 OW           5.7934    22.5888    29.5818 opls-116      1 RES       -0.847600
    1343 HW1          5.6734    23.5322    29.2727 opls-117      1 RES        0.423800
    1344 HW2          6.7658    22.4071    29.7283 opls-117      1 RES        0.423800
    1345 OW           3.5274    24.0514    21.2523 opls-116      1 RES       -0.847600
    1346 HW1          2.5964    24.3433    21.0332 opls-117      1 RES        0.423800
    1347 HW2          3.4938    23.2364    21.8307 opls-117      1 RES        0.423800
    1348 OW          28.0787    19.6943    21.3265 opls-116      1 RES       -0.847600
    1349 HW1         27.9203    19.2648    20.4375 opls-117      1 RES        0.423800
    1350 HW2         28.7362    20.4408    21.2237 opls-117      1 RES        0.423800
    1351 OW          19.6260    11.8716     2.5065 opls-116      1 RES       -0.847600
    1352 HW1         19.1427    11.1145     2.0669 opls-117      1 RES        0.423800
    1353 HW2         18.9808    12.4081     3.0504 opls-117      1 RES        0.423800
    1354 OW           5.5754    24.3927     9.0535 opls-116      1 RES       -0.847600
    1355 HW1          6.3268    23.7330     9.0696 opls-117      1 RES        0.423800
    1356 HW2          5.9470    25.3211     9.0490 opls-117      1 RES        0.423800
    1357 OW          13.6386    10.8520    10.3551 opls-116      1 RES       -0.847600
    1358 HW1         12.9352    11.4818    10.0255 opls-117      1 RES        0.423800
    1359 HW2         14.4997    11.0364     9.8813 opls-117      1 RES        0.423800
    1360 OW          12.1197    13.9811    14.2407 opls-116      1 RES       -0.847600
    1361 HW1         12.3685    13.3960    13.4689 opls-117      1 RES        0.423800
    1362 HW2         12.9320    14.4631    14.5691 opls-117      1 RES        0.423800
    1363 OW          15.6154    27.0501    19.2506 opls-116      1 RES       -0.847600
    1364 HW1         15.3334    28.0093    19.2701 opls-117      1 RES        0.423800
    1365 HW2         14.8051    26.4642    19.2575 opls-117      1 RES        0.423800
    1366 OW          16.8576    22.5308    14.8021 opls-116      1 RES       -0.847600
    1367 HW1         16.8305    23.4778    14.4821 opls-117      1 RES        0.423800
    1368 HW2         16.3966    21.9415    14.1386 opls-117      1 RES        0.423800
    1369 OW          28.2430    23.4456    14.1439 opls-116      1 RES       -0.847600
    1370 HW1         28.3097    24.3949    14.4512 opls-117      1 RES        0.423800
    1371 HW2         28.1391    22.8451    14.9368 opls-117      1 RES        0.423800
    1372 OW          19.6542    20.0297    16.8822 opls-116      1 RES       -0.847600
    1373 HW1         20.3326    19.5480    17.4369 opls-117      1 RES        0.423800
    1374 HW2         19.9201    19.9874    15.9192 opls-117      1 RES        0.423800
    1375 OW           8.0266    28.8733    25.7144 opls-116      1 RES       -0.847600
    1376 HW1          7.4259    29.6248    25.9872 opls-117      1 RES        0.423800
    1377 HW2          7.4735    28.1016    25.4005 opls-117      1 RES        0.423800
    1378 OW          22.7701    17.8500     4.5028 opls-116      1 RES       -0.847600
    1379 HW1         22.5927    18.6696     5.0477 opls-117      1 RES        0.423800
    1380 HW2         23.1980    17.1533     5.0786 opls-117      1 RES        0.423800
    1381 OW          21.8249    17.5990    19.4972 opls-116      1 RES       -0.847600
    1382 HW1         21.3908    18.4999    19.4904 opls-117      1 RES        0.423800
    1383 HW2         22.8189    17.7079    19.4911 opls-117      1 RES        0.423800
    1384 OW           8.9988    22.5530     6.8337 opls-116      1 RES       -0.847600
    1385 HW1          8.5497    21.8222     6.3196 opls-117      1 RES        0.423800
    1386 HW2          9.9809    22.5377     6.6459 opls-117      1 RES        0.423800
    1387 OW          16.2668     7.5044     9.8686 opls-116      1 RES       -0.847600
    1388 HW1         17.1754     7.4098     9.4618 opls-117      1 RES        0.423800
    1389 HW2         15.7841     8.2642     9.4330 opls-117      1 RES        0.423800
    1390 OW          24.4522    20.6350    13.8580 opls-116      1 RES       -0.847600
    1391 HW1         24.1023    19.7119    14.0174 opls-117      1 RES        0.423800
    1392 HW2         23.6960    21.2393    13.6070 opls-117      1 RES        0.423800
    1393 OW          24.0028    18.3531    29.5014 opls-116      1 RES       -0.847600
    1394 HW1         23.7673    17.5677    30.0740 opls-117      1 RES        0.423800
    1395 HW2         23.3968    18.3796    28.7064 opls-117      1 RES        0.423800
    1396 OW          18.4936    18.0551    26.4002 opls-116      1 RES       -0.847600
    1397 HW1         19.3572    17.9143    25.9161 opls-117      1 RES        0.423800
    1398 HW2         18.4690    18.9819    26.7751 opls-117      1 RES        0.423800
    1399 OW          26.0469    23.5953     9.3161 opls-116      1 RES       -0.847600
    1400 HW1         26.9612    23.1912     9.3449 opls-117      1 RES        0.423800
    1401 HW2         26.0713    24.4368     8.7764 opls-117      1 RES        0.423800
    1402 OW           7.0791    10.1452    25.3414 opls-116      1 RES       -0.847600
    1403 HW1          6.1020    10.0952    25.5479 opls-117      1 RES        0.423800
    1404 HW2          7.2091    10.5691    24.4451 opls-117      1 RES        0.423800
    1405 OW          30.0745    10.8100     5.6485 opls-116      1 RES       -0.847600
    1406 HW1         29.6329    11.6671     5.9138 opls-117      1 RES        0.423800
    1407 HW2         29.5206    10.3506     4.9542 opls-117      1 RES        0.423800
    1408 OW           3.9902    18.8440    24.0099 opls-116      1 RES       -0.847600
    1409 HW1          4.6733    18.9664    24.7300 opls-117      1 RES        0.423800
    1410 HW2          4.3235    18.1762    23.3444 opls-117      1 RES        0.423800
    1411 OW          19.6477    12.4281     9.2641 opls-116      1 RES       -0.847600
    1412 HW1         19.3512    11.4915     9.0776 opls-117      1 RES        0.423800
    1413 HW2         20.6371    12.4962     9.1360 opls-117      1 RES        0.423800
    1414 OW          18.2759     3.7562    25.9260 opls-116      1 RES       -0.847600
    1415 HW1         18.1251     2.9606    25.3393 opls-117      1 RES        0.423800
    1416 HW2         17.6491     3.7199    26.7044 opls-117      1 RES        0.423800
    1417 OW           7.2867     9.6827    17.2505 opls-116      1 RES       -0.847600
    1418 HW1          6.7216     9.4269    16.4662 opls-117      1 RES        0.423800
    1419 HW2          7.6314    10.6129    17.1237 opls-117      1 RES        0.423800
    1420 OW          24.3444     2.5684    22.4263 opls-116      1 RES       -0.847600
    1421 HW1         23.6000     1.9997    22.0762 opls-117      1 RES        0.423800
    1422 HW2         25.1516     1.9999    22.5854 opls-117      1 RES        0.423800
    1423 OW          22.6592     5.9218    10.3573 opls-116      1 RES       -0.847600
    1424 HW1         21.9755     6.3469    10.9504 opls-117      1 RES        0.423800
    1425 HW2         23.2383     6.6307     9.9548 opls-117      1 RES        0.423800
    1426 OW          11.5449    20.5576    28.0155 opls-116      1 RES       -0.847600
    1427 HW1         11.5124    19.8497    27.3099 opls-117      1 RES        0.423800
    1428 HW2         10.6867    21.0710    28.0123 opls-117      1 RES        0.423800
    1429 OW          22.4511     9.4587    11.0007 opls-116      1 RES       -0.847600
    1430 HW1         22.5619     8.4656    10.9624 opls-117      1 RES        0.423800
    1431 HW2         23.3511     9.8933    11.0352 opls-117      1 RES        0.423800
    1432 OW           4.6361    25.3505    16.2503 opls-116      1 RES       -0.847600
    1433 HW1          4.7193    26.2862    16.5932 opls-117      1 RES        0.423800
    1434 HW2          5.0653    25.2863    15.3493 opls-117      1 RES        0.423800
    1435 OW          10.9683    21.6581    21.9994 opls-116      1 RES       -0.847600
    1436 HW1         11.7780    22.2087    21.7963 opls-117      1 RES        0.423800
    1437 HW2         11.2427    20.7113    22.1677 opls-117      1 RES        0.423800
    1438 OW          28.2466    27.3000    25.5181 opls-116      1 RES       -0.847600
    1439 HW1         28.4357    26.3483    25.7597 opls-117      1 RES        0.423800
    1440 HW2         29.1078    27.8030    25.4456 opls-117      1 RES        0.423800
    1441 OW           6.0648    11.5392     9.6939 opls-116      1 RES       -0.847600
    1442 HW1          6.8816    11.3789     9.1398 opls-117      1 RES        0.423800
    1443 HW2          5.2504    11.4530     9.1200 opls-117      1 RES        0.423800
    1444 OW          24.9134     8.8443     2.3785 opls-116      1 RES       -0.847600
    1445 HW1         25.8607     8.7419     2.0750 opls-117      1 RES        0.423800
    1446 HW2         24.3602     8.1020     2.0005 opls-117      1 RES        0.423800
    1447 OW           9.4941    13.1620    17.0830 opls-116      1 RES       -0.847600
    1448 HW1          9.2541    12.2973    16.6418 opls-117      1 RES        0.423800
    1449 HW2          9.4419    13.9034    16.4139 opls-117      1 RES        0.423800
    1450 OW          21.9843    11.8126    14.3566 opls-116      1 RES       -0.847600
    1451 HW1         22.2836    12.5855    14.9161 opls-117      1 RES        0.423800
    1452 HW2         22.0690    10.9670    14.8837 opls-117      1 RES        0.423800
    1453 OW           2.4959    18.7944     5.8495 opls-116      1 RES       -0.847600
    1454 HW1          1.9984    18.1288     5.2932 opls-117      1 RES        0.423800
    1455 HW2          2.0220    18.9212     6.7209 opls-117      1 RES        0.423800
    1456 OW          24.1676     5.1050    13.2556 opls-116      1 RES       -0.847600
    1457 HW1         24.0692     4.1134    13.3394 opls-117      1 RES        0.423800
    1458 HW2         24.4284     5.4900    14.1409 opls-117      1 RES        0.423800
    1459 OW          12.5117    18.7891    15.4722 opls-116      1 RES       -0.847600
    1460 HW1         12.9541    17.9515    15.7928 opls-117      1 RES        0.423800
    1461 HW2         13.0839    19.5767    15.7006 opls-117      1 RES        0.423800
    1462 OW           5.1746     8.1538    15.5571 opls-116      1 RES       -0.847600
    1463 HW1          4.4795     7.4363    15.5113 opls-117      1 RES        0.423800
    1464 HW2          5.9952     7.8544    15.0704 opls-117      1 RES        0.423800
    1465 OW          24.0710     6.3854     7.9319 opls-116      1 RES       -0.847600
    1466 HW1         23.4160     5.6331     8.0024 opls-117      1 RES        0.423800
    1467 HW2         24.9944     6.0149     7.8310 opls-117      1 RES        0.423800
    1468 OW          23.1285    11.1490    26.7528 opls-116      1 RES       -0.847600
    1469 HW1         22.1997    11.5091    26.6651 opls-117      1 RES        0.423800
    1470 HW2         23.7295    11.6155    26.1038 opls-117      1 RES        0.423800
    1471 OW          23.4524    21.7546     3.5700 opls-116      1 RES       -0.847600
    1472 HW1         23.7831    21.9204     4.4991 opls-117      1 RES        0.423800
    1473 HW2         24.2243    21.5227     2.9780 opls-117      1 RES        0.423800
    1474 OW          19.4193    28.0556     4.7153 opls-116      1 RES       -0.847600
    1475 HW1         19.5806    28.6029     5.5366 opls-117      1 RES        0.423800
    1476 HW2         18.9050    28.5967     4.0499 opls-117      1 RES        0.423800
    1477 OW           5.8492    17.4056    16.5445 opls-116      1 RES       -0.847600
    1478 HW1          6.3561    18.1024    16.0371 opls-117      1 RES        0.423800
    1479 HW2          4.9982    17.7994    16.8920 opls-117      1 RES        0.423800
    1480 OW          14.2293     3.5768     9.6355 opls-116      1 RES       -0.847600
    1481 HW1         13.6698     4.3175     9.2637 opls-117      1 RES        0.423800
    1482 HW2         14.2525     3.6450    10.6329 opls-117      1 RES        0.423800
    1483 OW           4.2461    15.2488     1.9965 opls-116      1 RES       -0.847600
    1484 HW1          3.2645    15.0830     2.0911 opls-117      1 RES        0.423800
    1485 HW2          4.4356    16.2199     2.1412 opls-117      1 RES        0.423800
    1486 OW          22.9430     5.8925    21.2360 opls-116      1 RES       -0.847600
    1487 HW1         22.1914     6.2129    21.8126 opls-117      1 RES        0.423800
    1488 HW2         23.4747     5.2062    21.7324 opls-117      1 RES        0.423800
    1489 OW          15.9387    17.5640     5.6494 opls-116      1 RES       -0.847600
    1490 HW1         16.1612    16.5893     5.6720 opls-117      1 RES        0.423800
    1491 HW2         15.1685    17.7157     5.0299 opls-117      1 RES        0.423800
    1492 OW          24.9652    13.8675    12.0526 opls-116      1 RES       -0.847600
    1493 HW1         25.6724    14.2335    12.6574 opls-117      1 RES        0.423800
    1494 HW2         24.2073    13.5147    12.6012 opls-117      1 RES        0.423800
    1495 OW          18.0765     2.3549    15.5774 opls-116      1 RES       -0.847600
    1496 HW1         18.0173     1.9996    16.5102 opls-117      1 RES        0.423800
    1497 HW2         17.3142     1.9997    15.0364 opls-117      1 RES        0.423800
    1498 OW          25.6979    24.7290    26.0385 opls-116      1 RES       -0.847600
    1499 HW1         26.3081    24.3511    26.7348 opls-117      1 RES        0.423800
    1500 HW2         25.5559    25.7034    26.2131 opls-117      1 RES        0.423800
    1501 OW           4.1458    18.9358    12.8634 opls-116      1 RES       -0.847600
    1502 HW1          5.1091    18.6707    12.9049 opls-117      1 RES        0.423800
    1503 HW2          4.0751    19.9332    12.8465 opls-117      1 RES        0.423800
    1504 OW           7.4041    21.1122     3.9136 opls-116      1 RES       -0.847600
    1505 HW1          7.7215    20.4280     3.2570 opls-117      1 RES        0.423800
    1506 HW2          6.9617    20.6542     4.6847 opls-117      1 RES        0.423800
    1507 OW          23.2614     2.5334     7.9390 opls-116      1 RES       -0.847600
    1508 HW1         22.4310     2.0205     8.1568 opls-117      1 RES        0.423800
    1509 HW2         23.7787     2.0467     7.2350 opls-117      1 RES        0.423800
    1510 OW           4.9987     5.7442     5.2665 opls-116      1 RES       -0.847600
    1511 HW1          4.6054     6.4938     4.7341 opls-117      1 RES        0.423800
    1512 HW2          5.9841     5.8847     5.3625 opls-117      1 RES        0.423800
    1513 OW           2.3110    25.5280    29.7117 opls-116      1 RES       -0.847600
    1514 HW1          1.9999    25.0484    28.8912 opls-117      1 RES        0.423800
    1515 HW2          3.2400    25.2345    29.9371 opls-117      1 RES        0.423800
    1516 OW          14.4233    13.0508    29.5966 opls-116      1 RES       -0.847600
    1517 HW1         14.8522    13.8200    30.0703 opls-117      1 RES        0.423800
    1518 HW2         13.4317    13.1796    29.5816 opls-117      1 RES        0.423800
    1519 OW          29.4927    15.0502    15.0229 opls-116      1 RES       -0.847600
    1520 HW1         30.0681    15.8582    14.8959 opls-117      1 RES        0.423800
    1521 HW2         30.0665    14.2313    15.0367 opls-117      1 RES        0.423800
    1522 OW          25.5495    22.5653    19.8652 opls-116      1 RES       -0.847600
    1523 HW1         25.7831    22.5990    18.8934 opls-117      1 RES        0.423800
    1524 HW2         26.3678    22.7448    20.4112 opls-117      1 RES        0.423800
    1525 OW          17.9700    22.0383     5.4351 opls-116      1 RES       -0.847600
    1526 HW1         18.4813    21.2770     5.0364 opls-117      1 RES        0.423800
    1527 HW2         16.9975    21.8074     5.4649 opls-117      1 RES        0.423800
    1528 OW          20.1963     7.7685    27.3847 opls-116      1 RES       -0.847600
    1529 HW1         19.6542     7.4657    26.6008 opls-117      1 RES        0.423800
    1530 HW2         19.6699     7.6370    28.2247 opls-117      1 RES        0.423800
    1531 OW          10.4240     9.6387    12.9057 opls-116      1 RES       -0.847600
    1532 HW1         10.5425    10.6013    13.1491 opls-117      1 RES        0.423800
    1533 HW2          9.5594     9.3040    13.2804 opls-117      1 RES        0.423800
    1534 OW           3.0391    10.5024    30.0616 opls-116      1 RES       -0.847600
    1535 HW1          3.7992     9.8527    30.0704 opls-117      1 RES        0.423800
    1536 HW2          3.3983    11.4356    30.0506 opls-117      1 RES        0.423800
    1537 OW          24.5726     6.8640    11.9977 opls-116      1 RES       -0.847600
    1538 HW1         25.2032     7.5690    12.3222 opls-117      1 RES        0.423800
    1539 HW2         23.6433     7.0869    12.2922 opls-117      1 RES        0.423800
    1540 OW           2.1993    10.3390    19.8942 opls-116      1 RES       -0.847600
    1541 HW1          2.9996     9.8469    19.5516 opls-117      1 RES        0.423800
    1542 HW2          2.4491    11.2878    20.0876 opls-117      1 RES        0.423800
    1543 OW          15.5625    24.6789    12.7407 opls-116      1 RES       -0.847600
    1544 HW1         16.0552    23.8556    12.4587 opls-117      1 RES        0.423800
    1545 HW2         14.8342    24.8731    12.0836 opls-117      1 RES        0.423800
    1546 OW          26.0026    21.8835     4.2217 opls-116      1 RES       -0.847600
    1547 HW1         26.3751    22.8002     4.3659 opls-117      1 RES        0.423800
    1548 HW2         26.7502    21.2446     4.0404 opls-117      1 RES        0.423800
    1549 OW          16.1099     6.1432    23.3521 opls-116      1 RES       -0.847600
    1550 HW1         16.9008     6.4610    23.8751 opls-117      1 RES        0.423800
    1551 HW2         16.1830     5.1570    23.2034 opls-117      1 RES        0.423800
    1552 OW           9.1502    15.6474    10.7643 opls-116      1 RES       -0.847600
    1553 HW1          9.9012    15.5613    11.4190 opls-117      1 RES        0.423800
    1554 HW2          8.3074    15.8751    11.2519 opls-117      1 RES        0.423800
    1555 OW          17.0610     8.4090    13.9190 opls-116      1 RES       -0.847600
    1556 HW1         17.9400     7.9543    14.0628 opls-117      1 RES        0.423800
    1557 HW2         17.1935     9.2164    13.3440 opls-117      1 RES        0.423800
    1558 OW          25.2990     9.4790    27.3874 opls-116      1 RES       -0.847600
    1559 HW1         26.0008     8.7756    27.2748 opls-117      1 RES        0.423800
    1560 HW2         25.3392     9.8441    28.3175 opls-117      1 RES        0.423800
    1561 OW          25.1429    17.3784     3.1726 opls-116      1 RES       -0.847600
    1562 HW1         25.3154    18.2994     2.8232 opls-117      1 RES        0.423800
    1563 HW2         24.1928    17.1253     2.9903 opls-117      1 RES        0.423800
    1564 OW          26.0841     6.6311     4.1341 opls-116      1 RES       -0.847600
    1565 HW1         25.3284     6.8268     3.5092 opls-117      1 RES        0.423800
    1566 HW2         26.8818     6.3334     3.6096 opls-117      1 RES        0.423800
    1567 OW          16.8010    24.9491     9.2226 opls-116      1 RES       -0.847600
    1568 HW1         16.9595    24.0671     8.7788 opls-117      1 RES        0.423800
    1569 HW2         16.6723    25.6546     8.5256 opls-117      1 RES        0.423800
    1570 OW           5.4130    10.0543    22.6099 opls-116      1 RES       -0.847600
    1571 HW1          5.2136    10.3329    23.5494 opls-117      1 RES        0.423800
    1572 HW2          6.4022    10.0594    22.4635 opls-117      1 RES        0.423800
    1573 OW           3.4333    29.2536    17.9954 opls-116      1 RES       -0.847600
    1574 HW1          4.0181    28.5334    18.3687 opls-117      1 RES        0.423800
    1575 HW2          3.9965    30.0363    17.7303 opls-117      1 RES        0.423800
    1576 OW          18.2642    20.9266    24.1692 opls-116      1 RES       -0.847600
    1577 HW1         18.9632    21.6280    24.3087 opls-117      1 RES        0.423800
    1578 HW2         18.3855    20.5096    23.2684 opls-117      1 RES        0.423800
    1579 OW          28.2703     3.2232    27.7125 opls-116      1 RES       -0.847600
    1580 HW1         28.4629     3.2647    28.6929 opls-117      1 RES        0.423800
    1581 HW2         27.2996     3.0289    27.5715 opls-117      1 RES        0.423800
    1582 OW          15.5834     9.2610    11.6258 opls-116      1 RES       -0.847600
    1583 HW1         14.9323     8.5168    11.7748 opls-117      1 RES        0.423800
    1584 HW2         15.2102    10.1102    11.9993 opls-117      1 RES        0.423800
    1585 OW          14.1859    13.3442    20.0560 opls-116      1 RES       -0.847600
    1586 HW1         15.0464    13.2595    19.5536 opls-117      1 RES        0.423800
    1587 HW2         14.2686    14.0703    20.7386 opls-117      1 RES        0.423800
    1588 OW           4.9188    29.3041     6.1175 opls-116      1 RES       -0.847600
    1589 HW1          5.4302    29.6831     5.3463 opls-117      1 RES        0.423800
    1590 HW2          4.4480    30.0425     6.6004 opls-117      1 RES        0.423800
    1591 OW          30.0713    25.3108    24.2580 opls-116      1 RES       -0.847600
    1592 HW1         29.1853    24.8528    24.3310 opls-117      1 RES        0.423800
    1593 HW2         29.9295    26.2849    24.0819 opls-117      1 RES        0.423800
    1594 OW          14.2696    15.0061    28.3117 opls-116      1 RES       -0.847600
    1595 HW1         15.2556    15.1354    28.2068 opls-117      1 RES        0.423800
    1596 HW2         13.8185    15.8979    28.3486 opls-117      1 RES        0.423800
    1597 OW          24.3236    10.6443     3.9208 opls-116      1 RES       -0.847600
    1598 HW1         25.1527    11.2028     3.8963 opls-117      1 RES        0.423800
    1599 HW2         23.5295    11.2175     3.7183 opls-117      1 RES        0.423800
    1600 OW           7.6883    29.8688    20.9367 opls-116      1 RES       -0.847600
    1601 HW1          7.8662    28.8953    21.0807 opls-117      1 RES        0.423800
    1602 HW2          6.7362    30.0711    21.1659 opls-117      1 RES        0.423800
    1603 OW          25.5512    12.4316     9.7328 opls-116      1 RES       -0.847600
    1604 HW1         25.9684    13.2049    10.2103 opls-117      1 RES        0.423800
    1605 HW2         26.1817    11.6555     9.7409 opls-117      1 RES        0.423800
    1606 OW          16.7453    16.6507    21.7473 opls-116      1 RES       -0.847600
    1607 HW1         16.4961    15.6826    21.7206 opls-117      1 RES        0.423800
    1608 HW2         16.7784    17.0123    20.8156 opls-117      1 RES        0.423800
    1609 OW          16.1850    30.0846     3.2987 opls-116      1 RES       -0.847600
    1610 HW1         15.2103    29.8724     3.3698 opls-117      1 RES        0.423800
    1611 HW2         16.7207    29.2934     3.5937 opls-117      1 RES        0.423800
    1612 OW          12.3839     4.9082    19.7727 opls-116      1 RES       -0.847600
    1613 HW1         12.3593     4.0232    20.2377 opls-117      1 RES        0.423800
    1614 HW2         12.8402     4.8076    18.8886 opls-117      1 RES        0.423800
    1615 OW          16.3803    16.5744    24.6740 opls-116      1 RES       -0.847600
    1616 HW1         15.3939    16.7385    24.6729 opls-117      1 RES        0.423800
    1617 HW2         16.8594    17.4247    24.8920 opls-117      1 RES        0.423800
    1618 OW          16.2994     2.0073    10.8441 opls-116      1 RES       -0.847600
    1619 HW1         16.1760     2.6633    10.0995 opls-117      1 RES        0.423800
    1620 HW2         15.4816     1.9986    11.4195 opls-117      1 RES        0.423800
    1621 OW           3.5117     4.9242     7.0610 opls-116      1 RES       -0.847600
    1622 HW1          4.4922     4.7583     7.1661 opls-117      1 RES        0.423800
    1623 HW2          3.3647     5.8581     6.7350 opls-117      1 RES        0.423800
    1624 OW           2.8527    29.2672     5.2058 opls-116      1 RES       -0.847600
    1625 HW1          2.6650    30.0805     4.6550 opls-117      1 RES        0.423800
    1626 HW2          1.9917    28.8114     5.4313 opls-117      1 RES        0.423800
    1627 OW          22.8724    12.3996    19.8694 opls-116      1 RES       -0.847600
    1628 HW1         23.7510    12.0742    19.5200 opls-117      1 RES        0.423800
    1629 HW2         22.1427    12.1278    19.2419 opls-117      1 RES        0.423800
    1630 OW          16.8033    29.8474    16.3841 opls-116      1 RES       -0.847600
    1631 HW1         15.9220    30.0698    15.9670 opls-117      1 RES        0.423800
    1632 HW2         17.5403    30.0776    15.7487 opls-117      1 RES        0.423800
    1633 OW          28.7908    26.6132    11.7441 opls-116      1 RES       -0.847600
    1634 HW1         29.7063    26.9753    11.5683 opls-117      1 RES        0.423800
    1635 HW2         28.8651    25.7233    12.1941 opls-117      1 RES        0.423800
    1636 OW          22.6424    15.5110    29.3250 opls-116      1 RES       -0.847600
    1637 HW1         22.5802    16.3074    28.7235 opls-117      1 RES        0.423800
    1638 HW2         21.9479    15.5793    30.0413 opls-117      1 RES        0.423800
    1639 OW          10.3988    12.1098    27.5407 opls-116      1 RES       -0.847600
    1640 HW1         10.3012    11.1400    27.3172 opls-117      1 RES        0.423800
    1641 HW2         10.9519    12.2072    28.3680 opls-117      1 RES        0.423800
    1642 OW          18.9837    23.7106    15.5901 opls-116      1 RES       -0.847600
    1643 HW1         18.1870    23.9297    16.1534 opls-117      1 RES        0.423800
    1644 HW2         19.0238    22.7229    15.4392 opls-117      1 RES        0.423800
    1645 OW          23.8447    15.8930    17.8027 opls-116      1 RES       -0.847600
    1646 HW1         23.2703    15.7408    18.6070 opls-117      1 RES        0.423800
    1647 HW2         24.1325    15.0120    17.4271 opls-117      1 RES        0.423800
    1648 OW           6.1320     5.4240    23.3857 opls-116      1 RES       -0.847600
    1649 HW1          7.0265     5.8363    23.5589 opls-117      1 RES        0.423800
    1650 HW2          6.2526     4.4718    23.1050 opls-117      1 RES        0.423800
    1651 OW          24.4550     2.6718    10.0314 opls-116      1 RES       -0.847600
    1652 HW1         25.3380     2.2026    10.0263 opls-117      1 RES        0.423800
    1653 HW2         23.7182     1.9957    10.0226 opls-117      1 RES        0.423800
    1654 OW          18.7504    18.2476    11.0834 opls-116      1 RES       -0.847600
    1655 HW1         18.2154    18.6907    11.8027 opls-117      1 RES        0.423800
    1656 HW2         18.1446    17.9807    10.3339 opls-117      1 RES        0.423800
    1657 OW          29.5076    11.4475    16.8144 opls-116      1 RES       -0.847600
    1658 HW1         29.9995    10.8115    17.4091 opls-117      1 RES        0.423800
    1659 HW2         29.6361    12.3818    17.1468 opls-117      1 RES        0.423800
    1660 OW           2.0340    17.3183    19.9280 opls-116      1 RES       -0.847600
    1661 HW1          1.9935    18.3174    19.9165 opls-117      1 RES        0.423800
    1662 HW2          2.9894    17.0237    19.9486 opls-117      1 RES        0.423800
    1663 OW          28.2014    21.1634     7.1411 opls-116      1 RES       -0.847600
    1664 HW1         27.7103    21.3730     7.9866 opls-117      1 RES        0.423800
    1665 HW2         28.2585    21.9865     6.5761 opls-117      1 RES        0.423800
    1666 OW           6.5256    19.3892     6.9538 opls-116      1 RES       -0.847600
    1667 HW1          6.8452    20.3012     7.2109 opls-117      1 RES        0.423800
    1668 HW2          7.0819    18.6985     7.4157 opls-117      1 RES        0.423800
    1669 OW          25.0234     8.1245    24.1436 opls-116      1 RES       -0.847600
    1670 HW1         25.0201     8.7632    23.3741 opls-117      1 RES        0.423800
    1671 HW2         24.1753     7.5946    24.1405 opls-117      1 RES        0.423800
    1672 OW          30.0760     2.7540    16.0322 opls-116      1 RES       -0.847600
    1673 HW1         29.5235     3.4716    15.6082 opls-117      1 RES        0.423800
    1674 HW2         29.6812     2.5088    16.9177 opls-117      1 RES        0.423800
    1675 OW          27.5769    17.4416    25.3059 opls-116      1 RES       -0.847600
    1676 HW1         27.0390    16.6656    25.6354 opls-117      1 RES        0.423800
    1677 HW2         28.3198    17.1094    24.7248 opls-117      1 RES        0.423800
    1678 OW           5.9864    24.4872    11.2973 opls-116      1 RES       -0.847600
    1679 HW1          5.5625    25.3927    11.2787 opls-117      1 RES        0.423800
    1680 HW2          6.9421    24.5607    11.0123 opls-117      1 RES        0.423800
    1681 OW          11.6508    30.0467    17.2744 opls-116      1 RES       -0.847600
    1682 HW1         10.6657    30.0835    17.1064 opls-117      1 RES        0.423800
    1683 HW2         11.8230    30.0921    18.2585 opls-117      1 RES        0.423800
    1684 OW           4.2684    20.4868     6.3678 opls-116      1 RES       -0.847600
    1685 HW1          4.4966    20.1700     7.2885 opls-117      1 RES        0.423800
    1686 HW2          5.1096    20.6974     5.8698 opls-117      1 RES        0.423800
    1687 OW           7.7812    25.7475    29.7994 opls-116      1 RES       -0.847600
    1688 HW1          7.5872    26.3824    29.0516 opls-117      1 RES        0.423800
    1689 HW2          6.9863    25.1606    29.9530 opls-117      1 RES        0.423800
    1690 OW           8.6960    20.4852    22.5836 opls-116      1 RES       -0.847600
    1691 HW1          9.2941    19.7124    22.3712 opls-117      1 RES        0.423800
    1692 HW2          8.5789    20.5536    23.5744 opls-117      1 RES        0.423800
    1693 OW          29.8344    14.3082     5.7799 opls-116      1 RES       -0.847600
    1694 HW1         29.8798    15.0808     6.4132 opls-117      1 RES        0.423800
    1695 HW2         29.4814    14.6206     4.8979 opls-117      1 RES        0.423800
    1696 OW          12.0222    20.9440    20.0129 opls-116      1 RES       -0.847600
    1697 HW1         12.9375    21.2706    19.7772 opls-117      1 RES        0.423800
    1698 HW2         11.6668    20.3809    19.2668 opls-117      1 RES        0.423800
    1699 OW          22.6551    29.3751    19.9323 opls-116      1 RES       -0.847600
    1700 HW1         22.7496    30.0708    20.6444 opls-117      1 RES        0.423800
    1701 HW2         22.7606    28.4670    20.3374 opls-117      1 RES        0.423800
    1702 OW          21.0257    13.8232    28.0520 opls-116      1 RES       -0.847600
    1703 HW1         21.8944    14.1838    27.7124 opls-117      1 RES        0.423800
    1704 HW2         21.0290    12.8256    27.9826 opls-117      1 RES        0.423800
    1705 OW          21.6996     4.7659    19.0515 opls-116      1 RES       -0.847600
    1706 HW1         22.6828     4.5993    18.9767 opls-117      1 RES        0.423800
    1707 HW2         21.4464     4.8386    20.0161 opls-117      1 RES        0.423800
    1708 OW          21.6116    16.6805    17.5094 opls-116      1 RES       -0.847600
    1709 HW1         21.1782    15.8905    17.9432 opls-117      1 RES        0.423800
    1710 HW2         20.9635    17.4414    17.4791 opls-117      1 RES        0.423800
    1711 OW          15.9312    25.9481    16.2578 opls-116      1 RES       -0.847600
    1712 HW1         16.4253    25.2021    15.8115 opls-117      1 RES        0.423800
    1713 HW2         15.8160    25.7378    17.2286 opls-117      1 RES        0.423800
    1714 OW          19.4369    16.5951     2.2368 opls-116      1 RES       -0.847600
    1715 HW1         20.3487    16.2733     1.9815 opls-117      1 RES        0.423800
    1716 HW2         18.7602    15.8955     2.0072 opls-117      1 RES        0.423800
    1717 OW           2.7443     9.1867    16.6622 opls-116      1 RES       -0.847600
    1718 HW1          1.9998     9.2901    16.0027 opls-117      1 RES        0.423800
    1719 HW2          3.5968     9.5172    16.2570 opls-117      1 RES        0.423800
    1720 OW           6.4430    23.3735     6.0619 opls-116      1 RES       -0.847600
    1721 HW1          6.2385    22.5526     5.5287 opls-117      1 RES        0.423800
    1722 HW2          6.8732    23.1112     6.9257 opls-117      1 RES        0.423800
    1723 OW          17.2597    29.7582    27.7305 opls-116      1 RES       -0.847600
    1724 HW1         16.4856    30.0706    28.2812 opls-117      1 RES        0.423800
    1725 HW2         18.1143    30.0397    28.1669 opls-117      1 RES        0.423800
    1726 OW           3.3259    15.0003    29.5616 opls-116      1 RES       -0.847600
    1727 HW1          3.4696    14.1681    30.0972 opls-117      1 RES        0.423800
    1728 HW2          2.7942    15.6549    30.0990 opls-117      1 RES        0.423800
    1729 OW          25.2007     8.7059    16.4647 opls-116      1 RES       -0.847600
    1730 HW1         25.1711     7.7193    16.3045 opls-117      1 RES        0.423800
    1731 HW2         24.4566     8.9661    17.0801 opls-117      1 RES        0.423800
    1732 OW          23.0729    23.7404     9.3333 opls-116      1 RES       -0.847600
    1733 HW1         22.3167    24.3942     9.3052 opls-117      1 RES        0.423800
    1734 HW2         23.9417    24.2339     9.2935 opls-117      1 RES        0.423800
    1735 OW          13.5202    15.6319    19.3856 opls-116      1 RES       -0.847600
    1736 HW1         13.6353    15.3357    18.4375 opls-117      1 RES        0.423800
    1737 HW2         13.0826    16.5309    19.4032 opls-117      1 RES        0.423800
    1738 OW           9.7628     5.5515     1.9987 opls-116      1 RES       -0.847600
    1739 HW1          9.1607     5.7492     2.7722 opls-117      1 RES        0.423800
    1740 HW2         10.7135     5.7034     2.2691 opls-117      1 RES        0.423800
    1741 OW          14.4189     8.1737    29.4156 opls-116      1 RES       -0.847600
    1742 HW1         14.9200     8.7400    30.0700 opls-117      1 RES        0.423800
    1743 HW2         14.7022     7.2198    29.5148 opls-117      1 RES        0.423800
    1744 OW          16.3569    17.7848    14.4261 opls-116      1 RES       -0.847600
    1745 HW1         15.7453    17.0748    14.0770 opls-117      1 RES        0.423800
    1746 HW2         15.8147    18.5376    14.7994 opls-117      1 RES        0.423800
    1747 OW          29.6221    22.4293     8.2446 opls-116      1 RES       -0.847600
    1748 HW1         30.0743    22.8569     7.4619 opls-117      1 RES        0.423800
    1749 HW2         30.0714    21.5612     8.4558 opls-117      1 RES        0.423800
    1750 OW           5.9286    25.0729    26.5015 opls-116      1 RES       -0.847600
    1751 HW1          6.0702    24.4984    27.3076 opls-117      1 RES        0.423800
    1752 HW2          5.5926    24.5104    25.7461 opls-117      1 RES        0.423800
    1753 OW           4.9706    22.6973    20.2915 opls-116      1 RES       -0.847600
    1754 HW1          4.7632    21.8204    20.7253 opls-117      1 RES        0.423800
    1755 HW2          5.5942    23.2182    20.8744 opls-117      1 RES        0.423800
    1756 OW           2.9810    16.6369    24.3257 opls-116      1 RES       -0.847600
    1757 HW1          3.8846    16.2086    24.3225 opls-117      1 RES        0.423800
    1758 HW2          2.2760    15.9277    24.3319 opls-117      1 RES        0.423800
    1759 OW          11.4463     7.6761    25.3798 opls-116      1 RES       -0.847600
    1760 HW1         10.8332     8.0919    24.7082 opls-117      1 RES        0.423800
    1761 HW2         11.1083     6.7666    25.6217 opls-117      1 RES        0.423800
    1762 OW          15.8178    13.4511     3.2846 opls-116      1 RES       -0.847600
    1763 HW1         15.5297    12.5090     3.4565 opls-117      1 RES        0.423800
    1764 HW2         16.3369    13.4903     2.4308 opls-117      1 RES        0.423800
    1765 OW          23.6999    10.0334     8.7635 opls-116      1 RES       -0.847600
    1766 HW1         24.2559    10.7316     9.2143 opls-117      1 RES        0.423800
    1767 HW2         24.2945     9.3130     8.4065 opls-117      1 RES        0.423800
    1768 OW          26.9121     7.0537    14.5461 opls-116      1 RES       -0.847600
    1769 HW1         25.9342     7.0808    14.3389 opls-117      1 RES        0.423800
    1770 HW2         27.1486     7.8229    15.1397 opls-117      1 RES        0.423800
    1771 OW           6.1402    15.2641    16.1341 opls-116      1 RES       -0.847600
    1772 HW1          5.5060    14.5579    16.4487 opls-117      1 RES        0.423800
    1773 HW2          6.1941    15.2428    15.1358 opls-117      1 RES        0.423800
    1774 OW          12.3928    11.7890    24.1265 opls-116      1 RES       -0.847600
    1775 HW1         13.0572    12.0288    24.8344 opls-117      1 RES        0.423800
    1776 HW2         11.5082    11.5961    24.5511 opls-117      1 RES        0.423800
    1777 OW           3.9215    15.8312    12.8202 opls-116      1 RES       -0.847600
    1778 HW1          3.5143    15.2885    12.0856 opls-117      1 RES        0.423800
    1779 HW2          4.1218    16.7512    12.4833 opls-117      1 RES        0.423800
    1780 OW          14.6513    25.6953    29.2342 opls-116      1 RES       -0.847600
    1781 HW1         15.3025    26.1617    28.6356 opls-117      1 RES        0.423800
    1782 HW2         14.5254    26.2293    30.0702 opls-117      1 RES        0.423800
    1783 OW          18.1259    16.5805    27.9903 opls-116      1 RES       -0.847600
    1784 HW1         17.3248    17.1766    28.0438 opls-117      1 RES        0.423800
    1785 HW2         17.8327    15.6249    28.0183 opls-117      1 RES        0.423800
    1786 OW          11.4427    24.4092    12.6672 opls-116      1 RES       -0.847600
    1787 HW1         12.3199    23.9955    12.4237 opls-117      1 RES        0.423800
    1788 HW2         11.1310    24.0392    13.5423 opls-117      1 RES        0.423800
    1789 OW          30.0700     6.1311    29.2461 opls-116      1 RES       -0.847600
    1790 HW1         29.1752     5.6848    29.2382 opls-117      1 RES        0.423800
    1791 HW2         29.9480     7.1233    29.2194 opls-117      1 RES        0.423800
    1792 OW           3.1687    25.7548     2.6915 opls-116      1 RES       -0.847600
    1793 HW1          2.7891    24.9378     2.2575 opls-117      1 RES        0.423800
    1794 HW2          3.6176    26.3213     2.0004 opls-117      1 RES        0.423800
    1795 OW          29.3984    10.3736     8.1394 opls-116      1 RES       -0.847600
    1796 HW1         29.8327     9.4730     8.1583 opls-117      1 RES        0.423800
    1797 HW2         30.0704    11.0729     8.3831 opls-117      1 RES        0.423800
    1798 OW           3.1096     3.3223    11.4577 opls-116      1 RES       -0.847600
    1799 HW1          2.1345     3.5397    11.4134 opls-117      1 RES        0.423800
    1800 HW2          3.6431     4.1331    11.2169 opls-117      1 RES        0.423800
    1801 OW           6.1622    10.4157     7.2976 opls-116      1 RES       -0.847600
    1802 HW1          7.0271     9.9468     7.4769 opls-117      1 RES        0.423800
    1803 HW2          5.4479     9.7398     7.1165 opls-117      1 RES        0.423800
    1804 OW          27.1347    14.0777    26.0627 opls-116      1 RES       -0.847600
    1805 HW1         27.4706    13.1538    26.2462 opls-117      1 RES        0.423800
    1806 HW2         27.8015    14.7463    26.3920 opls-117      1 RES        0.423800
    1807 OW          11.2669    17.1992    18.3568 opls-116      1 RES       -0.847600
    1808 HW1         10.7617    17.9950    18.6906 opls-117      1 RES        0.423800
    1809 HW2         11.6017    17.3807    17.4322 opls-117      1 RES        0.423800
    1810 OW           6.1471    27.5163     5.3636 opls-116      1 RES       -0.847600
    1811 HW1          6.4369    26.5637     5.2707 opls-117      1 RES        0.423800
    1812 HW2          6.9511    28.0995     5.4794 opls-117      1 RES        0.423800
    1813 OW          15.3390     5.1329    15.3088 opls-116      1 RES       -0.847600
    1814 HW1         15.1169     5.2519    14.3411 opls-117      1 RES        0.423800
    1815 HW2         15.7798     5.9614    15.6540 opls-117      1 RES        0.423800
    1816 OW           9.8254    14.8695     2.6637 opls-116      1 RES       -0.847600
    1817 HW1          9.1838    14.1027     2.6795 opls-117      1 RES        0.423800
    1818 HW2          9.3162    15.7301     2.6568 opls-117      1 RES        0.423800
    1819 OW           4.3895    24.3195    18.1930 opls-116      1 RES       -0.847600
    1820 HW1          5.2932    24.0641    18.5366 opls-117      1 RES        0.423800
    1821 HW2          3.9177    23.5040    17.8577 opls-117      1 RES        0.423800
    1822 OW          18.3757    27.6770    10.9865 opls-116      1 RES       -0.847600
    1823 HW1         17.7907    26.9113    10.7194 opls-117      1 RES        0.423800
    1824 HW2         19.3141    27.3533    11.1073 opls-117      1 RES        0.423800
    1825 OW           8.2333    16.8473    25.2284 opls-116      1 RES       -0.847600
    1826 HW1          9.2092    16.6415    25.3005 opls-117      1 RES        0.423800
    1827 HW2          8.1046    17.8375    25.1739 opls-117      1 RES        0.423800
    1828 OW          26.9553    22.0437    27.8373 opls-116      1 RES       -0.847600
    1829 HW1         26.2584    22.2630    28.5202 opls-117      1 RES        0.423800
    1830 HW2         26.8223    21.1067    27.5143 opls-117      1 RES        0.423800
    1831 OW           2.1281     5.1598    16.2458 opls-116      1 RES       -0.847600
    1832 HW1          1.9980     5.9048    16.9002 opls-117      1 RES        0.423800
    1833 HW2          2.9884     4.6897    16.4427 opls-117      1 RES        0.423800
    1834 OW           9.7561    26.6796     9.3738 opls-116      1 RES       -0.847600
    1835 HW1          8.9980    26.0287     9.4146 opls-117      1 RES        0.423800
    1836 HW2          9.3946    27.6119     9.3626 opls-117      1 RES        0.423800
    1837 OW          21.2234    21.2659     3.0137 opls-116      1 RES       -0.847600
    1838 HW1         21.7052    20.4425     3.3135 opls-117      1 RES        0.423800
    1839 HW2         21.0020    21.8307     3.8087 opls-117      1 RES        0.423800
    1840 OW          11.8060     7.6552    18.5338 opls-116      1 RES       -0.847600
    1841 HW1         10.9357     7.1632    18.5563 opls-117      1 RES        0.423800
    1842 HW2         12.5498     7.0090    18.3629 opls-117      1 RES        0.423800
    1843 OW           2.9571    28.1295    12.6462 opls-116      1 RES       -0.847600
    1844 HW1          1.9993    27.9059    12.8267 opls-117      1 RES        0.423800
    1845 HW2          3.0812    29.1210    12.6864 opls-117      1 RES        0.423800
    1846 OW          28.9946    24.5405     8.3775 opls-116      1 RES       -0.847600
    1847 HW1         28.8619    25.0119     7.5056 opls-117      1 RES        0.423800
    1848 HW2         29.9294    24.6913     8.6990 opls-117      1 RES        0.423800
    1849 OW          22.0229    22.4364    14.4221 opls-116      1 RES       -0.847600
    1850 HW1         21.0646    22.3671    14.6994 opls-117      1 RES        0.423800
    1851 HW2         22.2779    23.4000    14.3417 opls-117      1 RES        0.423800
    1852 OW          20.5156    20.1443     5.5607 opls-116      1 RES       -0.847600
    1853 HW1         21.4501    20.4947     5.4981 opls-117      1 RES        0.423800
    1854 HW2         20.5384    19.1489     5.6536 opls-117      1 RES        0.423800
    1855 OW          20.6703     3.0567     6.6711 opls-116      1 RES       -0.847600
    1856 HW1         20.4018     2.4729     7.4373 opls-117      1 RES        0.423800
    1857 HW2         21.3469     2.5799     6.1099 opls-117      1 RES        0.423800
    1858 OW           8.4042    26.8302     4.3268 opls-116      1 RES       -0.847600
    1859 HW1          8.5600    25.8506     4.4536 opls-117      1 RES        0.423800
    1860 HW2          8.9557    27.3433     4.9846 opls-117      1 RES        0.423800
    1861 OW           8.9861    26.9978    17.2155 opls-116      1 RES       -0.847600
    1862 HW1          9.0579    27.0846    16.2219 opls-117      1 RES        0.423800
    1863 HW2          9.1478    27.8885    17.6404 opls-117      1 RES        0.423800
    1864 OW          23.9175    14.1104    25.3633 opls-116      1 RES       -0.847600
    1865 HW1         23.3959    13.7894    26.1538 opls-117      1 RES        0.423800
    1866 HW2         24.1862    13.3281    24.8012 opls-117      1 RES        0.423800
    1867 OW           7.1898     9.7119    20.1809 opls-116      1 RES       -0.847600
    1868 HW1          6.8325     9.1572    19.4295 opls-117      1 RES        0.423800
    1869 HW2          7.5988    10.5472    19.8133 opls-117      1 RES        0.423800
    1870 OW           9.2822    26.8917    25.0831 opls-116      1 RES       -0.847600
    1871 HW1          8.8815    25.9791    25.0012 opls-117      1 RES        0.423800
    1872 HW2          9.3442    27.1431    26.0490 opls-117      1 RES        0.423800
    1873 OW           3.6722    22.1052    30.0701 opls-116      1 RES       -0.847600
    1874 HW1          2.6727    22.0733    30.0695 opls-117      1 RES        0.423800
    1875 HW2          4.0354    21.1735    30.0817 opls-117      1 RES        0.423800
    1876 OW           5.1952    13.5849     8.4208 opls-116      1 RES       -0.847600
    1877 HW1          6.1617    13.3281     8.4180 opls-117      1 RES        0.423800
    1878 HW2          5.1095    14.5579     8.6355 opls-117      1 RES        0.423800
    1879 OW          21.0766    17.7964    21.6721 opls-116      1 RES       -0.847600
    1880 HW1         20.8301    16.8282    21.6309 opls-117      1 RES        0.423800
    1881 HW2         22.0724    17.8875    21.6638 opls-117      1 RES        0.423800
    1882 OW          18.8211    12.0161    12.1776 opls-116      1 RES       -0.847600
    1883 HW1         18.8845    13.0132    12.2190 opls-117      1 RES        0.423800
    1884 HW2         19.1314    11.6993    11.2813 opls-117      1 RES        0.423800
    1885 OW          21.1553    19.9482    22.1213 opls-116      1 RES       -0.847600
    1886 HW1         21.1719    20.8469    21.6831 opls-117      1 RES        0.423800
    1887 HW2         20.2118    19.7038    22.3451 opls-117      1 RES        0.423800
    1888 OW          29.0734     5.1487    13.1082 opls-116      1 RES       -0.847600
    1889 HW1         29.3703     5.0216    12.1618 opls-117      1 RES        0.423800
    1890 HW2         29.1408     4.2796    13.5983 opls-117      1 RES        0.423800
    1891 OW          27.6110     2.6742     2.5940 opls-116      1 RES       -0.847600
    1892 HW1         27.3927     2.0000     3.2995 opls-117      1 RES        0.423800
    1893 HW2         27.5510     3.5939     2.9819 opls-117      1 RES        0.423800
    1894 OW           2.5747    20.9566    21.1453 opls-116      1 RES       -0.847600
    1895 HW1          1.9984    21.7739    21.1494 opls-117      1 RES        0.423800
    1896 HW2          1.9962    20.1409    21.1467 opls-117      1 RES        0.423800
    1897 OW          17.2035    29.4970    11.4694 opls-116      1 RES       -0.847600
    1898 HW1         18.0186    30.0761    11.4543 opls-117      1 RES        0.423800
    1899 HW2         16.3864    30.0725    11.5046 opls-117      1 RES        0.423800
    1900 OW           4.3444    23.2595     7.6261 opls-116      1 RES       -0.847600
    1901 HW1          4.7616    22.4782     7.1619 opls-117      1 RES        0.423800
    1902 HW2          4.5591    24.0982     7.1255 opls-117      1 RES        0.423800
    1903 OW          22.6770    24.8621    27.4984 opls-116      1 RES       -0.847600
    1904 HW1         23.6251    25.1517    27.6295 opls-117      1 RES        0.423800
    1905 HW2         22.0860    25.6674    27.4512 opls-117      1 RES        0.423800
    1906 OW           2.5545    12.7764     8.7489 opls-116      1 RES       -0.847600
    1907 HW1          3.4001    12.6328     9.2631 opls-117      1 RES        0.423800
    1908 HW2          2.7049    13.4736     8.0481 opls-117      1 RES        0.423800
    1909 OW          28.7908    24.5697     5.0306 opls-116      1 RES       -0.847600
    1910 HW1         29.6323    24.3865     5.5389 opls-117      1 RES        0.423800
    1911 HW2         28.3578    25.3965     5.3897 opls-117      1 RES        0.423800
    1912 OW          24.2966    21.5173    10.7800 opls-116      1 RES       -0.847600
    1913 HW1         24.4986    22.3121    10.2078 opls-117      1 RES        0.423800
    1914 HW2         23.6804    20.9013    10.2893 opls-117      1 RES        0.423800
    1915 OW          29.9041    14.3579    27.6388 opls-116      1 RES       -0.847600
    1916 HW1         29.8156    15.1618    28.2269 opls-117      1 RES        0.423800
    1917 HW2         29.2307    13.6703    27.9105 opls-117      1 RES        0.423800
    1918 OW          29.3346     9.8821    20.8496 opls-116      1 RES       -0.847600
    1919 HW1         28.5662    10.3137    20.3769 opls-117      1 RES        0.423800
    1920 HW2         30.0704    10.5489    20.9674 opls-117      1 RES        0.423800
    1921 OW           7.3294    24.6106    17.9118 opls-116      1 RES       -0.847600
    1922 HW1          7.4691    23.6243    17.8247 opls-117      1 RES        0.423800
    1923 HW2          8.2164    25.0713    17.9441 opls-117      1 RES        0.423800
    1924 OW           5.3746    29.5114    15.6918 opls-116      1 RES       -0.847600
    1925 HW1          5.7696    30.0605    16.4283 opls-117      1 RES        0.423800
    1926 HW2          5.2867    30.0721    14.8684 opls-117      1 RES        0.423800
    1927 OW           4.3682    13.8204     4.2902 opls-116      1 RES       -0.847600
    1928 HW1          5.0974    13.5665     3.6547 opls-117      1 RES        0.423800
    1929 HW2          3.5835    13.2152     4.1562 opls-117      1 RES        0.423800
    1930 OW           2.6954    29.2926     7.6983 opls-116      1 RES       -0.847600
    1931 HW1          2.3331    30.0783     7.1970 opls-117      1 RES        0.423800
    1932 HW2          1.9976    28.5780     7.7477 opls-117      1 RES        0.423800
    1933 OW          29.6892     9.5516    25.8867 opls-116      1 RES       -0.847600
    1934 HW1         29.1999     9.5334    26.7586 opls-117      1 RES        0.423800
    1935 HW2         30.0746     8.6476    25.7018 opls-117      1 RES        0.423800
    1936 OW          19.6621    25.2110     8.2197 opls-116      1 RES       -0.847600
    1937 HW1         19.0862    26.0060     8.4104 opls-117      1 RES        0.423800
    1938 HW2         20.6202    25.4469     8.3820 opls-117      1 RES        0.423800
    1939 OW          16.7218    10.6942     7.9347 opls-116      1 RES       -0.847600
    1940 HW1         16.0558    10.2551     8.5377 opls-117      1 RES        0.423800
    1941 HW2         16.4399    10.5735     6.9828 opls-117      1 RES        0.423800
    1942 OW          23.3543     8.1927    15.1582 opls-116      1 RES       -0.847600
    1943 HW1         23.3270     9.1912    15.2065 opls-117      1 RES        0.423800
    1944 HW2         22.4226     7.8368    15.0863 opls-117      1 RES        0.423800
    1945 OW          20.7249    29.8199     6.9682 opls-116      1 RES       -0.847600
    1946 HW1         19.7756    30.0592     7.1724 opls-117      1 RES        0.423800
    1947 HW2         21.2817    29.9338     7.7909 opls-117      1 RES        0.423800
    1948 OW          23.3812     2.6776     2.8104 opls-116      1 RES       -0.847600
    1949 HW1         22.5973     2.3331     3.3269 opls-117      1 RES        0.423800
    1950 HW2         23.5294     2.1019     2.0062 opls-117      1 RES        0.423800
    1951 OW          28.4199     6.1946     5.2149 opls-116      1 RES       -0.847600
    1952 HW1         29.4154     6.1764     5.1222 opls-117      1 RES        0.423800
    1953 HW2         28.1395     7.0603     5.6295 opls-117      1 RES        0.423800
    1954 OW          14.3939    16.3231    16.1292 opls-116      1 RES       -0.847600
    1955 HW1         14.5714    15.7231    15.3492 opls-117      1 RES        0.423800
    1956 HW2         15.0035    16.0786    16.8833 opls-117      1 RES        0.423800
    1957 OW          22.7740    13.2993    17.1047 opls-116      1 RES       -0.847600
    1958 HW1         23.6122    12.8751    17.4475 opls-117      1 RES        0.423800
    1959 HW2         22.3353    13.8136    17.8416 opls-117      1 RES        0.423800
    1960 OW          23.3494    26.1650    23.8789 opls-116      1 RES       -0.847600
    1961 HW1         23.8818    26.9944    23.7100 opls-117      1 RES        0.423800
    1962 HW2         22.4491    26.4137    24.2360 opls-117      1 RES        0.423800
    1963 OW          23.1428    15.2203    20.7509 opls-116      1 RES       -0.847600
    1964 HW1         22.7705    15.8066    21.4705 opls-117      1 RES        0.423800
    1965 HW2         23.0615    14.2624    21.0262 opls-117      1 RES        0.423800
    1966 OW          28.1563     5.4423    20.6146 opls-116      1 RES       -0.847600
    1967 HW1         27.3983     6.0887    20.7011 opls-117      1 RES        0.423800
    1968 HW2         28.1692     4.8355    21.4094 opls-117      1 RES        0.423800
    1969 OW           9.0111    28.5936    14.5437 opls-116      1 RES       -0.847600
    1970 HW1          8.8456    27.7033    14.1195 opls-117      1 RES        0.423800
    1971 HW2          9.9394    28.6187    14.9146 opls-117      1 RES        0.423800
    1972 OW          18.7888    24.6557    18.1410 opls-116      1 RES       -0.847600
    1973 HW1         17.9019    25.0947    17.9969 opls-117      1 RES        0.423800
    1974 HW2         18.6498    23.7381    18.5135 opls-117      1 RES        0.423800
    1975 OW          25.2125    18.5193    26.3621 opls-116      1 RES       -0.847600
    1976 HW1         25.2690    17.9674    25.5302 opls-117      1 RES        0.423800
    1977 HW2         24.2687    18.5288    26.6925 opls-117      1 RES        0.423800
    1978 OW          25.7403     5.6143    16.5954 opls-116      1 RES       -0.847600
    1979 HW1         25.8835     4.6247    16.5815 opls-117      1 RES        0.423800
    1980 HW2         26.6221     6.0798    16.5191 opls-117      1 RES        0.423800
    1981 OW          21.9829    25.8919    15.0661 opls-116      1 RES       -0.847600
    1982 HW1         22.3734    25.5413    15.9173 opls-117      1 RES        0.423800
    1983 HW2         21.2404    25.2920    14.7681 opls-117      1 RES        0.423800
    1984 OW          18.9927     5.6761     4.5823 opls-116      1 RES       -0.847600
    1985 HW1         19.2607     4.7790     4.9336 opls-117      1 RES        0.423800
    1986 HW2         18.9666     6.3344     5.3345 opls-117      1 RES        0.423800
    1987 OW          27.7447    25.5482    21.6510 opls-116      1 RES       -0.847600
    1988 HW1         28.3462    25.1004    22.3126 opls-117      1 RES        0.423800
    1989 HW2         27.8745    25.1352    20.7496 opls-117      1 RES        0.423800
    1990 OW           6.6565     4.3612     2.7935 opls-116      1 RES       -0.847600
    1991 HW1          7.3979     4.6035     3.4193 opls-117      1 RES        0.423800
    1992 HW2          6.6728     4.9748     2.0040 opls-117      1 RES        0.423800
    1993 OW          15.9483     5.0310    10.4281 opls-116      1 RES       -0.847600
    1994 HW1         16.4162     5.3979    11.2321 opls-117      1 RES        0.423800
    1995 HW2         15.1775     5.6227    10.1920 opls-117      1 RES        0.423800
    1996 OW          27.6129     9.6659    10.4955 opls-116      1 RES       -0.847600
    1997 HW1         27.8337     8.7195    10.7315 opls-117      1 RES        0.423800
    1998 HW2         26.8909    10.0007    11.1009 opls-117      1 RES        0.423800
    1999 OW          11.1792     6.4632    23.2703 opls-116      1 RES       -0.847600
    2000 HW1         11.1019     7.2705    22.6852 opls-117      1 RES        0.423800
    2001 HW2         12.0904     6.4354    23.6812 opls-117      1 RES        0.423800
    2002 OW          11.6292     4.3112    23.3429 opls-116      1 RES       -0.847600
    2003 HW1         11.1898     3.6338    22.7529 opls-117      1 RES        0.423800
    2004 HW2         12.4842     3.9365    23.7013 opls-117      1 RES        0.423800
    2005 OW          14.3448    10.7326    20.2493 opls-116      1 RES       -0.847600
    2006 HW1         14.3921    10.3055    19.3463 opls-117      1 RES        0.423800
    2007 HW2         13.5041    11.2694    20.3204 opls-117      1 RES        0.423800
    2008 OW           4.0793    22.3127    26.0239 opls-116      1 RES       -0.847600
    2009 HW1          3.9422    21.3255    25.9424 opls-117      1 RES        0.423800
    2010 HW2          4.5455    22.6530    25.2072 opls-117      1 RES        0.423800
    2011 OW          18.4891    15.5668    10.4660 opls-116      1 RES       -0.847600
    2012 HW1         17.7089    15.8655     9.9163 opls-117      1 RES        0.423800
    2013 HW2         18.4879    16.0543    11.3391 opls-117      1 RES        0.423800
    2014 OW          23.3786    22.6437    28.1267 opls-116      1 RES       -0.847600
    2015 HW1         24.2641    23.1083    28.1349 opls-117      1 RES        0.423800
    2016 HW2         23.5207    21.6546    28.1649 opls-117      1 RES        0.423800
    2017 OW           4.6600    25.5156    20.0637 opls-116      1 RES       -0.847600
    2018 HW1          4.9384    25.7198    21.0022 opls-117      1 RES        0.423800
    2019 HW2          3.7843    25.9587    19.8718 opls-117      1 RES        0.423800
    2020 OW          11.5968     3.6630    13.8497 opls-116      1 RES       -0.847600
    2021 HW1         10.7035     4.0944    13.7233 opls-117      1 RES        0.423800
    2022 HW2         11.4751     2.7570    14.2551 opls-117      1 RES        0.423800
    2023 OW           2.5717    22.1811     4.3738 opls-116      1 RES       -0.847600
    2024 HW1          3.3517    21.8459     4.9023 opls-117      1 RES        0.423800
    2025 HW2          1.9980    21.4091     4.1001 opls-117      1 RES        0.423800
    2026 OW          28.5944    15.9656    12.7274 opls-116      1 RES       -0.847600
    2027 HW1         28.1351    15.2943    13.3092 opls-117      1 RES        0.423800
    2028 HW2         29.4520    15.5801    12.3868 opls-117      1 RES        0.423800
    2029 OW          12.8962    24.6690    26.8899 opls-116      1 RES       -0.847600
    2030 HW1         12.8930    23.6907    27.0973 opls-117      1 RES        0.423800
    2031 HW2         13.6624    25.1069    27.3602 opls-117      1 RES        0.423800
    2032 OW          28.0971    13.3945    15.8652 opls-116      1 RES       -0.847600
    2033 HW1         28.5113    12.6954    15.2824 opls-117      1 RES        0.423800
    2034 HW2         27.1044    13.2740    15.8763 opls-117      1 RES        0.423800
    2035 OW           5.0127    10.4421    18.4557 opls-116      1 RES       -0.847600
    2036 HW1          5.9036    10.8963    18.4556 opls-117      1 RES        0.423800
    2037 HW2          5.0604     9.6147    17.8962 opls-117      1 RES        0.423800
    2038 OW          12.6308    30.0696     4.2473 opls-116      1 RES       -0.847600
    2039 HW1         12.6907    29.2798     3.6369 opls-117      1 RES        0.423800
    2040 HW2         13.2615    29.9472     5.0137 opls-117      1 RES        0.423800
    2041 OW          26.2660    17.7799     9.0467 opls-116      1 RES       -0.847600
    2042 HW1         26.0347    16.8102     9.1254 opls-117      1 RES        0.423800
    2043 HW2         27.2081    17.8727     8.7243 opls-117      1 RES        0.423800
    2044 OW          17.2562    27.1644     3.4721 opls-116      1 RES       -0.847600
    2045 HW1         17.9617    26.6137     3.9182 opls-117      1 RES        0.423800
    2046 HW2         17.6158    27.5374     2.6168 opls-117      1 RES        0.423800
    2047 OW          19.2843    20.6112    11.7238 opls-116      1 RES       -0.847600
    2048 HW1         20.0242    19.9386    11.7300 opls-117      1 RES        0.423800
    2049 HW2         19.6665    21.5283    11.8375 opls-117      1 RES        0.423800
    2050 OW           3.2413     8.7869     7.9196 opls-116      1 RES       -0.847600
    2051 HW1          3.0595     7.9042     8.3529 opls-117      1 RES        0.423800
    2052 HW2          2.3784     9.1978     7.6254 opls-117      1 RES        0.423800
    2053 OW          13.0684     9.6268    12.1339 opls-116      1 RES       -0.847600
    2054 HW1         12.5180    10.4586    12.2071 opls-117      1 RES        0.423800
    2055 HW2         12.4662     8.8286    12.1227 opls-117      1 RES        0.423800
    2056 OW          18.1871    10.0249    24.3818 opls-116      1 RES       -0.847600
    2057 HW1         18.7361     9.3121    24.8182 opls-117      1 RES        0.423800
    2058 HW2         18.1684    10.8360    24.9664 opls-117      1 RES        0.423800
    2059 OW          27.7179     2.2853    11.9370 opls-116      1 RES       -0.847600
    2060 HW1         26.7898     2.0260    11.6696 opls-117      1 RES        0.423800
    2061 HW2         27.7099     3.2118    12.3131 opls-117      1 RES        0.423800
    2062 OW           8.4818     6.3537    18.6025 opls-116      1 RES       -0.847600
    2063 HW1          7.8975     5.5424    18.5847 opls-117      1 RES        0.423800
    2064 HW2          8.8130     6.5463    17.6788 opls-117      1 RES        0.423800
    2065 OW          22.5719     4.6306    16.7800 opls-116      1 RES       -0.847600
    2066 HW1         22.1929     3.9173    16.1904 opls-117      1 RES        0.423800
    2067 HW2         23.4965     4.8586    16.4751 opls-117      1 RES        0.423800
    2068 OW           7.0151    28.8564     3.1329 opls-116      1 RES       -0.847600
    2069 HW1          7.4124    29.2343     2.2966 opls-117      1 RES        0.423800
    2070 HW2          6.1233    29.2777     3.2982 opls-117      1 RES        0.423800
    2071 OW           7.1630    27.5655     9.9495 opls-116      1 RES       -0.847600
    2072 HW1          7.1108    26.6532    10.3557 opls-117      1 RES        0.423800
    2073 HW2          6.2421    27.9466     9.8664 opls-117      1 RES        0.423800
    2074 OW          17.5890    29.6893    25.5567 opls-116      1 RES       -0.847600
    2075 HW1         18.4513    30.0556    25.9063 opls-117      1 RES        0.423800
    2076 HW2         17.4077    30.0712    24.6505 opls-117      1 RES        0.423800
    2077 OW           7.7571    21.5040    14.5124 opls-116      1 RES       -0.847600
    2078 HW1          8.1534    22.3477    14.8746 opls-117      1 RES        0.423800
    2079 HW2          7.5782    21.6127    13.5346 opls-117      1 RES        0.423800
    2080 OW           8.5404    19.4967    26.5513 opls-116      1 RES       -0.847600
    2081 HW1          9.3373    19.5613    27.1519 opls-117      1 RES        0.423800
    2082 HW2          8.7379    19.9552    25.6849 opls-117      1 RES        0.423800
    2083 OW           2.4589    25.7450    13.3216 opls-116      1 RES       -0.847600
    2084 HW1          1.9980    25.0130    13.8233 opls-117      1 RES        0.423800
    2085 HW2          2.4051    25.5615    12.3401 opls-117      1 RES        0.423800
    2086 OW          17.5392    13.8676     8.9818 opls-116      1 RES       -0.847600
    2087 HW1         17.5589    12.8937     8.7555 opls-117      1 RES        0.423800
    2088 HW2         16.5903    14.1683     9.0781 opls-117      1 RES        0.423800
    2089 OW          18.7980     1.9738     4.6656 opls-116      1 RES       -0.847600
    2090 HW1         19.5584     2.6024     4.8285 opls-117      1 RES        0.423800
    2091 HW2         17.9412     2.4885     4.6324 opls-117      1 RES        0.423800
    2092 OW           3.2621     6.5487    13.9084 opls-116      1 RES       -0.847600
    2093 HW1          2.5061     7.1904    14.0377 opls-117      1 RES        0.423800
    2094 HW2          4.0012     7.0005    13.4088 opls-117      1 RES        0.423800
    2095 OW          14.3334     3.0096    24.4503 opls-116      1 RES       -0.847600
    2096 HW1         15.1189     3.3827    23.9565 opls-117      1 RES        0.423800
    2097 HW2         14.1765     3.5451    25.2801 opls-117      1 RES        0.423800
    2098 OW          17.8768    18.7735     5.9271 opls-116      1 RES       -0.847600
    2099 HW1         18.0846    17.8133     6.1134 opls-117      1 RES        0.423800
    2100 HW2         18.4027    19.0806     5.1340 opls-117      1 RES        0.423800
    2101 OW          28.5680    27.8039    28.7017 opls-116      1 RES       -0.847600
    2102 HW1         28.9180    28.7304    28.5637 opls-117      1 RES        0.423800
    2103 HW2         27.5915    27.7811    28.4872 opls-117      1 RES        0.423800
    2104 OW          18.7579    30.1167     9.3829 opls-116      1 RES       -0.847600
    2105 HW1         18.3424    29.2075     9.4101 opls-117      1 RES        0.423800
    2106 HW2         19.7539    30.0278     9.3709 opls-117      1 RES        0.423800
    2107 OW           5.2972     6.2909    20.7880 opls-116      1 RES       -0.847600
    2108 HW1          6.1227     6.2621    21.3516 opls-117      1 RES        0.423800
    2109 HW2          5.5538     6.3066    19.8216 opls-117      1 RES        0.423800
    2110 OW           8.7239    25.9833     2.2607 opls-116      1 RES       -0.847600
    2111 HW1          8.2141    26.8287     2.1012 opls-117      1 RES        0.423800
    2112 HW2          8.1543    25.1991     2.0142 opls-117      1 RES        0.423800
    2113 OW           9.6994    10.6739     5.9773 opls-116      1 RES       -0.847600
    2114 HW1         10.2793    11.2192     5.3720 opls-117      1 RES        0.423800
    2115 HW2          9.3534     9.8784     5.4798 opls-117      1 RES        0.423800
    2116 OW           9.8563    28.9331    24.4951 opls-116      1 RES       -0.847600
    2117 HW1          9.9495    29.9102    24.6865 opls-117      1 RES        0.423800
    2118 HW2         10.7367    28.4803    24.6365 opls-117      1 RES        0.423800
    2119 OW          23.0072    20.0705    19.7140 opls-116      1 RES       -0.847600
    2120 HW1         22.2226    20.6789    19.5946 opls-117      1 RES        0.423800
    2121 HW2         22.9375    19.6060    20.5968 opls-117      1 RES        0.423800
    2122 OW           7.9790     2.9945     6.0566 opls-116      1 RES       -0.847600
    2123 HW1          7.1072     3.4266     6.2873 opls-117      1 RES        0.423800
    2124 HW2          7.8666     2.0008     6.0483 opls-117      1 RES        0.423800
    2125 OW          17.0258    20.4510    15.6291 opls-116      1 RES       -0.847600
    2126 HW1         17.9069    20.8717    15.8451 opls-117      1 RES        0.423800
    2127 HW2         16.5194    20.2847    16.4752 opls-117      1 RES        0.423800
    2128 OW           5.2503    21.0503     9.6368 opls-116      1 RES       -0.847600
    2129 HW1          6.0809    21.5935     9.5146 opls-117      1 RES        0.423800
    2130 HW2          4.5131    21.4398     9.0847 opls-117      1 RES        0.423800
    2131 OW          13.8068    14.8216     9.7786 opls-116      1 RES       -0.847600
    2132 HW1         14.2941    14.0695     9.3349 opls-117      1 RES        0.423800
    2133 HW2         12.8303    14.6094     9.8171 opls-117      1 RES        0.423800
    2134 OW          19.9872    16.3237    29.1337 opls-116      1 RES       -0.847600
    2135 HW1         20.5809    17.1284    29.1327 opls-117      1 RES        0.423800
    2136 HW2         19.7008    16.1219    30.0703 opls-117      1 RES        0.423800
    2137 OW          20.3389    25.6148    16.7502 opls-116      1 RES       -0.847600
    2138 HW1         19.4369    25.7305    16.3343 opls-117      1 RES        0.423800
    2139 HW2         20.5482    24.6399    16.8263 opls-117      1 RES        0.423800
    2140 OW          13.6043    26.0018    14.5526 opls-116      1 RES       -0.847600
    2141 HW1         14.0649    25.1584    14.2757 opls-117      1 RES        0.423800
    2142 HW2         14.2634    26.6133    14.9903 opls-117      1 RES        0.423800
    2143 OW           2.4267    15.1575    10.1809 opls-116      1 RES       -0.847600
    2144 HW1          1.9988    14.2587    10.2763 opls-117      1 RES        0.423800
    2145 HW2          3.3812    15.0446     9.9046 opls-117      1 RES        0.423800
    2146 OW          28.0908    11.0207    28.0265 opls-116      1 RES       -0.847600
    2147 HW1         27.5448    11.8585    28.0227 opls-117      1 RES        0.423800
    2148 HW2         27.4832    10.2267    28.0074 opls-117      1 RES        0.423800
    2149 OW          10.9304    17.9757     4.2912 opls-116      1 RES       -0.847600
    2150 HW1         11.5530    18.4123     3.6417 opls-117      1 RES        0.423800
    2151 HW2         11.4602    17.5307     5.0132 opls-117      1 RES        0.423800
    2152 OW          20.0720     8.5060    19.2596 opls-116      1 RES       -0.847600
    2153 HW1         19.1164     8.3106    19.0391 opls-117      1 RES        0.423800
    2154 HW2         20.1692     9.4735    19.4930 opls-117      1 RES        0.423800
    2155 OW          25.6672    13.9987     8.1811 opls-116      1 RES       -0.847600
    2156 HW1         26.5280    13.5005     8.0767 opls-117      1 RES        0.423800
    2157 HW2         25.8100    14.9621     7.9542 opls-117      1 RES        0.423800
    2158 OW          20.9943    19.2087    27.8143 opls-116      1 RES       -0.847600
    2159 HW1         20.0902    19.2311    28.2411 opls-117      1 RES        0.423800
    2160 HW2         21.1310    18.3235    27.3695 opls-117      1 RES        0.423800
    2161 OW          12.5238    23.4236    19.2991 opls-116      1 RES       -0.847600
    2162 HW1         12.7958    23.4115    20.2613 opls-117      1 RES        0.423800
    2163 HW2         11.5491    23.6365    19.2309 opls-117      1 RES        0.423800
    2164 OW          17.3758    29.1376    13.6328 opls-116      1 RES       -0.847600
    2165 HW1         17.0217    30.0725    13.6108 opls-117      1 RES        0.423800
    2166 HW2         18.3755    29.1598    13.6412 opls-117      1 RES        0.423800
    2167 OW           8.4065    21.4223    27.9268 opls-116      1 RES       -0.847600
    2168 HW1          8.0165    20.7017    28.5001 opls-117      1 RES        0.423800
    2169 HW2          7.7516    21.6716    27.2134 opls-117      1 RES        0.423800
    2170 OW          13.9513    22.5209    12.4576 opls-116      1 RES       -0.847600
    2171 HW1         14.1726    23.0587    13.2711 opls-117      1 RES        0.423800
    2172 HW2         14.7477    21.9786    12.1898 opls-117      1 RES        0.423800
    2173 OW           1.9931    19.1029    12.4464 opls-116      1 RES       -0.847600
    2174 HW1          2.0241    19.0507    13.4446 opls-117      1 RES        0.423800
    2175 HW2          2.1653    18.1969    12.0597 opls-117      1 RES        0.423800
    2176 OW           6.8999    23.7035    13.6802 opls-116      1 RES       -0.847600
    2177 HW1          6.3168    24.5142    13.6258 opls-117      1 RES        0.423800
    2178 HW2          7.5797    23.7322    12.9473 opls-117      1 RES        0.423800
    2179 OW           8.2531    24.7589    27.2266 opls-116      1 RES       -0.847600
    2180 HW1          8.7599    24.7706    28.0886 opls-117      1 RES        0.423800
    2181 HW2          7.9832    25.6913    26.9861 opls-117      1 RES        0.423800
    2182 OW          25.7034    16.8672    12.0518 opls-116      1 RES       -0.847600
    2183 HW1         25.6321    16.3033    11.2291 opls-117      1 RES        0.423800
    2184 HW2         26.4800    16.5586    12.6011 opls-117      1 RES        0.423800
    2185 OW          17.3115     6.8704    21.3145 opls-116      1 RES       -0.847600
    2186 HW1         16.4624     6.3566    21.1914 opls-117      1 RES        0.423800
    2187 HW2         18.0869     6.2390    21.3088 opls-117      1 RES        0.423800
    2188 OW          18.3932    26.9855    19.6460 opls-116      1 RES       -0.847600
    2189 HW1         19.1693    26.5532    19.1868 opls-117      1 RES        0.423800
    2190 HW2         17.6874    26.2998    19.8244 opls-117      1 RES        0.423800
    2191 OW          13.0666    27.7390    19.6936 opls-116      1 RES       -0.847600
    2192 HW1         13.1312    28.6426    19.2703 opls-117      1 RES        0.423800
    2193 HW2         13.5701    27.7389    20.5576 opls-117      1 RES        0.423800
    2194 OW           4.8368    10.5137     3.5750 opls-116      1 RES       -0.847600
    2195 HW1          5.2387     9.7644     4.1012 opls-117      1 RES        0.423800
    2196 HW2          5.0545    11.3846     4.0155 opls-117      1 RES        0.423800
    2197 OW          11.3541     8.8874     6.1825 opls-116      1 RES       -0.847600
    2198 HW1         11.5439     9.3677     5.3262 opls-117      1 RES        0.423800
    2199 HW2         10.6538     8.1909     6.0258 opls-117      1 RES        0.423800
    2200 OW           2.1680    14.3123    19.5928 opls-116      1 RES       -0.847600
    2201 HW1          2.9968    14.4168    20.1425 opls-117      1 RES        0.423800
    2202 HW2          1.9857    13.3401    19.4462 opls-117      1 RES        0.423800
    2203 OW           6.5556    20.1824    25.8382 opls-116      1 RES       -0.847600
    2204 HW1          6.0481    19.7592    26.5887 opls-117      1 RES        0.423800
    2205 HW2          6.0821    21.0117    25.5415 opls-117      1 RES        0.423800
    2206 OW          17.8179     3.3199    12.3061 opls-116      1 RES       -0.847600
    2207 HW1         17.7110     3.6150    11.3566 opls-117      1 RES        0.423800
    2208 HW2         17.8818     2.3225    12.3400 opls-117      1 RES        0.423800
    2209 OW           4.6656    21.5464    28.0076 opls-116      1 RES       -0.847600
    2210 HW1          4.4234    20.5776    27.9546 opls-117      1 RES        0.423800
    2211 HW2          5.5495    21.6938    27.5638 opls-117      1 RES        0.423800
    2212 OW           8.0449     6.1698    26.5782 opls-116      1 RES       -0.847600
    2213 HW1          7.2371     5.9108    26.0487 opls-117      1 RES        0.423800
    2214 HW2          7.8068     6.2155    27.5484 opls-117      1 RES        0.423800
    2215 OW          25.6275     4.0837     1.9985 opls-116      1 RES       -0.847600
    2216 HW1         25.6289     4.7419     2.7514 opls-117      1 RES        0.423800
    2217 HW2         25.4792     3.1635     2.3606 opls-117      1 RES        0.423800
    2218 OW          17.7376     6.8719    27.5031 opls-116      1 RES       -0.847600
    2219 HW1         18.2031     6.0471    27.8241 opls-117      1 RES        0.423800
    2220 HW2         16.9466     7.0566    28.0864 opls-117      1 RES        0.423800
    2221 OW          24.9338    10.3476     6.5736 opls-116      1 RES       -0.847600
    2222 HW1         25.7297    10.3418     5.9683 opls-117      1 RES        0.423800
    2223 HW2         24.1650    10.7873     6.1092 opls-117      1 RES        0.423800
    2224 OW           8.2396     9.9386    28.4947 opls-116      1 RES       -0.847600
    2225 HW1          7.3914     9.5501    28.1346 opls-117      1 RES        0.423800
    2226 HW2          8.3098    10.8976    28.2204 opls-117      1 RES        0.423800
    2227 OW           9.1986    20.2091     7.6664 opls-116      1 RES       -0.847600
    2228 HW1          9.2603    19.3098     8.0993 opls-117      1 RES        0.423800
    2229 HW2          9.9687    20.7746     7.9616 opls-117      1 RES        0.423800
    2230 OW          27.8716    17.2947    18.1132 opls-116      1 RES       -0.847600
    2231 HW1         28.7518    16.8250    18.1819 opls-117      1 RES        0.423800
    2232 HW2         27.9543    18.2152    18.4951 opls-117      1 RES        0.423800
    2233 OW           9.5721    27.4607    29.0214 opls-116      1 RES       -0.847600
    2234 HW1         10.5399    27.2142    28.9710 opls-117      1 RES        0.423800
    2235 HW2          9.2744    27.4493    29.9760 opls-117      1 RES        0.423800
    2236 OW           6.5531    13.4372    27.3411 opls-116      1 RES       -0.847600
    2237 HW1          5.6197    13.6037    27.0233 opls-117      1 RES        0.423800
    2238 HW2          6.5751    12.5990    27.8860 opls-117      1 RES        0.423800
    2239 OW          15.3373     1.9838    17.1735 opls-116      1 RES       -0.847600
    2240 HW1         16.1720     2.1508    17.6982 opls-117      1 RES        0.423800
    2241 HW2         15.4803     2.2594    16.2230 opls-117      1 RES        0.423800
    2242 OW          24.0156     3.0846    15.2827 opls-116      1 RES       -0.847600
    2243 HW1         23.8058     2.3866    15.9673 opls-117      1 RES        0.423800
    2244 HW2         25.0073     3.1682    15.1850 opls-117      1 RES        0.423800
    2245 OW          15.1632    14.3681     5.3988 opls-116      1 RES       -0.847600
    2246 HW1         14.8649    13.4150     5.3472 opls-117      1 RES        0.423800
    2247 HW2         16.1621    14.4036     5.4284 opls-117      1 RES        0.423800
    2248 OW           2.5697    29.5292    26.8684 opls-116      1 RES       -0.847600
    2249 HW1          1.9999    29.1419    26.1436 opls-117      1 RES        0.423800
    2250 HW2          2.0000    30.0702    27.4871 opls-117      1 RES        0.423800
    2251 OW          29.5127    22.3454     4.6768 opls-116      1 RES       -0.847600
    2252 HW1         30.0715    22.5350     3.8694 opls-117      1 RES        0.423800
    2253 HW2         28.5456    22.4500     4.4449 opls-117      1 RES        0.423800
    2254 OW          19.9440    17.8763    12.8930 opls-116      1 RES       -0.847600
    2255 HW1         19.6425    18.1686    13.8005 opls-117      1 RES        0.423800
    2256 HW2         20.9008    18.1350    12.7602 opls-117      1 RES        0.423800
    2257 OW           8.7774    16.2146     7.4434 opls-116      1 RES       -0.847600
    2258 HW1          9.6763    15.7769     7.4595 opls-117      1 RES        0.423800
    2259 HW2          8.0820    15.5588     7.7373 opls-117      1 RES        0.423800
    2260 OW          17.2929    29.7205    20.0529 opls-116      1 RES       -0.847600
    2261 HW1         18.1045    29.1417    19.9731 opls-117      1 RES        0.423800
    2262 HW2         17.0631    30.0979    19.1558 opls-117      1 RES        0.423800
    2263 OW          28.0381    25.6853     2.5589 opls-116      1 RES       -0.847600
    2264 HW1         27.2310    25.4953     2.0000 opls-117      1 RES        0.423800
    2265 HW2         28.6489    26.3027     2.0633 opls-117      1 RES        0.423800
    2266 OW          29.0079     6.0443    15.5670 opls-116      1 RES       -0.847600
    2267 HW1         29.8763     5.8231    15.1231 opls-117      1 RES        0.423800
    2268 HW2         28.3463     5.3166    15.3862 opls-117      1 RES        0.423800
    2269 OW           6.6226    16.8522    13.2437 opls-116      1 RES       -0.847600
    2270 HW1          7.6018    16.6588    13.1817 opls-117      1 RES        0.423800
    2271 HW2          6.1058    16.0124    13.0773 opls-117      1 RES        0.423800
    2272 OW          15.3657     4.1800    17.2911 opls-116      1 RES       -0.847600
    2273 HW1         14.5535     3.9347    17.8205 opls-117      1 RES        0.423800
    2274 HW2         15.9613     4.7618    17.8449 opls-117      1 RES        0.423800
    2275 OW          29.5027    19.1966    26.9683 opls-116      1 RES       -0.847600
    2276 HW1         30.0689    19.5100    26.2059 opls-117      1 RES        0.423800
    2277 HW2         29.3752    19.9454    27.6187 opls-117      1 RES        0.423800
    2278 OW          29.2346    22.5261    16.8796 opls-116      1 RES       -0.847600
    2279 HW1         28.4787    23.1465    17.0887 opls-117      1 RES        0.423800
    2280 HW2         30.1012    23.0194    16.9546 opls-117      1 RES        0.423800
    2281 OW          25.1129     8.2304     6.0039 opls-116      1 RES       -0.847600
    2282 HW1         24.5566     8.6173     5.2686 opls-117      1 RES        0.423800
    2283 HW2         26.0654     8.1710     5.7052 opls-117      1 RES        0.423800
    2284 OW          26.3475    22.8790    16.6155 opls-116      1 RES       -0.847600
    2285 HW1         26.0592    23.8365    16.6282 opls-117      1 RES        0.423800
    2286 HW2         25.5481    22.2888    16.7277 opls-117      1 RES        0.423800
    2287 OW          20.2103     2.2854     2.7150 opls-116      1 RES       -0.847600
    2288 HW1         20.8664     2.0420     2.0006 opls-117      1 RES        0.423800
    2289 HW2         19.2934     1.9990     2.4371 opls-117      1 RES        0.423800
    2290 OW          23.9413    15.4198     9.3827 opls-116      1 RES       -0.847600
    2291 HW1         24.4819    14.8434     9.9955 opls-117      1 RES        0.423800
    2292 HW2         23.6975    14.8995     8.5643 opls-117      1 RES        0.423800
    2293 OW          18.0745    20.1448     9.9464 opls-116      1 RES       -0.847600
    2294 HW1         17.9663    21.1388     9.9323 opls-117      1 RES        0.423800
    2295 HW2         19.0023    19.9064     9.6593 opls-117      1 RES        0.423800
    2296 OW          13.5779    12.3683    11.9461 opls-116      1 RES       -0.847600
    2297 HW1         13.3064    13.1659    11.4074 opls-117      1 RES        0.423800
    2298 HW2         14.5571    12.2036    11.8273 opls-117      1 RES        0.423800
    2299 OW           2.2021     7.3805    21.5733 opls-116      1 RES       -0.847600
    2300 HW1          2.0081     6.8475    22.3969 opls-117      1 RES        0.423800
    2301 HW2          2.9351     6.9391    21.0557 opls-117      1 RES        0.423800
    2302 OW          20.5953     8.9226     5.9395 opls-116      1 RES       -0.847600
    2303 HW1         19.7821     9.4731     6.1284 opls-117      1 RES        0.423800
    2304 HW2         20.3413     7.9563     5.8978 opls-117      1 RES        0.423800
    2305 OW          14.9301    21.3857    29.2161 opls-116      1 RES       -0.847600
    2306 HW1         15.8116    21.8560    29.1734 opls-117      1 RES        0.423800
    2307 HW2         15.0809    20.3978    29.2532 opls-117      1 RES        0.423800
    2308 OW           5.1548    20.9883    14.9572 opls-116      1 RES       -0.847600
    2309 HW1          5.4630    21.3507    14.0777 opls-117      1 RES        0.423800
    2310 HW2          5.9175    20.9896    15.6040 opls-117      1 RES        0.423800
    2311 OW          17.7114    27.2959     7.2770 opls-116      1 RES       -0.847600
    2312 HW1         17.3827    27.6963     8.1323 opls-117      1 RES        0.423800
    2313 HW2         17.7331    27.9993     6.5664 opls-117      1 RES        0.423800
    2314 OW           7.9335     7.2865     7.4248 opls-116      1 RES       -0.847600
    2315 HW1          7.0750     7.7536     7.6362 opls-117      1 RES        0.423800
    2316 HW2          8.5811     7.9403     7.0336 opls-117      1 RES        0.423800
    2317 OW          18.3048    19.0504    21.4644 opls-116      1 RES       -0.847600
    2318 HW1         18.6598    18.1250    21.5969 opls-117      1 RES        0.423800
    2319 HW2         17.3057    19.0330    21.5042 opls-117      1 RES        0.423800
    2320 OW          14.7567    10.0558     4.5729 opls-116      1 RES       -0.847600
    2321 HW1         15.0619    10.7018     5.2726 opls-117      1 RES        0.423800
    2322 HW2         14.5383    10.5527     3.7330 opls-117      1 RES        0.423800
    2323 OW          27.2093    10.2996     7.9368 opls-116      1 RES       -0.847600
    2324 HW1         26.4052     9.9263     8.3994 opls-117      1 RES        0.423800
    2325 HW2         27.4854     9.6834     7.1991 opls-117      1 RES        0.423800
    2326 OW          29.4839    14.8743    18.8876 opls-116      1 RES       -0.847600
    2327 HW1         30.0699    14.9626    19.6931 opls-117      1 RES        0.423800
    2328 HW2         30.0428    14.6360    18.0933 opls-117      1 RES        0.423800
    2329 OW          22.2198    30.0409    27.1197 opls-116      1 RES       -0.847600
    2330 HW1         21.2261    30.0643    27.0103 opls-117      1 RES        0.423800
    2331 HW2         22.5996    29.3048    26.5595 opls-117      1 RES        0.423800
    2332 OW          14.2428    27.2777    17.0872 opls-116      1 RES       -0.847600
    2333 HW1         13.4665    27.8917    17.2301 opls-117      1 RES        0.423800
    2334 HW2         15.0901    27.8088    17.0756 opls-117      1 RES        0.423800
    2335 OW          22.0371    13.5890    12.9529 opls-116      1 RES       -0.847600
    2336 HW1         21.0767    13.4412    13.1887 opls-117      1 RES        0.423800
    2337 HW2         22.1551    14.5182    12.6026 opls-117      1 RES        0.423800
    2338 OW          29.2047     9.6769    12.1608 opls-116      1 RES       -0.847600
    2339 HW1         30.0714     9.8156    11.6815 opls-117      1 RES        0.423800
    2340 HW2         28.7099    10.5444    12.2125 opls-117      1 RES        0.423800
    2341 OW           5.7343    26.7898    25.0945 opls-116      1 RES       -0.847600
    2342 HW1          5.5072    26.6219    24.1352 opls-117      1 RES        0.423800
    2343 HW2          4.8945    26.8115    25.6370 opls-117      1 RES        0.423800
    2344 OW          27.6264    13.2682     2.0772 opls-116      1 RES       -0.847600
    2345 HW1         27.6071    12.2719     1.9939 opls-117      1 RES        0.423800
    2346 HW2         27.4960    13.5252     3.0348 opls-117      1 RES        0.423800
    2347 OW          11.3766    12.3979    16.0757 opls-116      1 RES       -0.847600
    2348 HW1         11.6263    12.0507    15.1717 opls-117      1 RES        0.423800
    2349 HW2         11.3564    11.6414    16.7294 opls-117      1 RES        0.423800
    2350 OW           3.7838    20.2715    16.5282 opls-116      1 RES       -0.847600
    2351 HW1          2.8128    20.0398    16.4697 opls-117      1 RES        0.423800
    2352 HW2          3.8824    21.2456    16.7317 opls-117      1 RES        0.423800
    2353 OW          18.9822    13.3487    29.5920 opls-116      1 RES       -0.847600
    2354 HW1         18.7682    13.7559    28.7041 opls-117      1 RES        0.423800
    2355 HW2         19.6466    13.9228    30.0706 opls-117      1 RES        0.423800
    2356 OW          23.3018    23.1920    16.2911 opls-116      1 RES       -0.847600
    2357 HW1         22.3631    23.4309    16.5394 opls-117      1 RES        0.423800
    2358 HW2         23.8821    24.0033    16.3620 opls-117      1 RES        0.423800
    2359 OW          13.7070    17.2800    30.0701 opls-116      1 RES       -0.847600
    2360 HW1         14.0854    18.2014    29.9820 opls-117      1 RES        0.423800
    2361 HW2         12.7383    17.2924    29.8222 opls-117      1 RES        0.423800
    2362 OW          11.3003    26.4846     3.5653 opls-116      1 RES       -0.847600
    2363 HW1         10.3931    26.8665     3.3888 opls-117      1 RES        0.423800
    2364 HW2         11.9374    26.8002     2.8620 opls-117      1 RES        0.423800
    2365 OW          17.2482    27.3090    17.7936 opls-116      1 RES       -0.847600
    2366 HW1         18.1358    27.1842    17.3502 opls-117      1 RES        0.423800
    2367 HW2         17.0682    28.2858    17.9100 opls-117      1 RES        0.423800
    2368 OW          18.2716     4.0296     1.9885 opls-116      1 RES       -0.847600
    2369 HW1         17.8486     3.7905     2.8625 opls-117      1 RES        0.423800
    2370 HW2         19.2519     4.1757     2.1215 opls-117      1 RES        0.423800
    2371 OW          18.8620    16.2599    17.2315 opls-116      1 RES       -0.847600
    2372 HW1         19.1154    16.8349    16.4536 opls-117      1 RES        0.423800
    2373 HW2         17.9676    16.5429    17.5778 opls-117      1 RES        0.423800
    2374 OW           7.9593    29.2172     7.6315 opls-116      1 RES       -0.847600
    2375 HW1          8.2520    28.2615     7.5987 opls-117      1 RES        0.423800
    2376 HW2          8.7612    29.8131     7.5885 opls-117      1 RES        0.423800
    2377 OW          16.0491    15.7376    18.7885 opls-116      1 RES       -0.847600
    2378 HW1         15.6938    15.4693    19.6839 opls-117      1 RES        0.423800
    2379 HW2         16.1088    16.7345    18.7386 opls-117      1 RES        0.423800
    2380 OW          18.7074    19.5019     2.9703 opls-116      1 RES       -0.847600
    2381 HW1         19.0279    18.8637     2.2703 opls-117      1 RES        0.423800
    2382 HW2         19.4919    19.9612     3.3868 opls-117      1 RES        0.423800
    2383 OW           3.5581    10.2311    14.1765 opls-116      1 RES       -0.847600
    2384 HW1          2.8262     9.5774    13.9841 opls-117      1 RES        0.423800
    2385 HW2          4.4310     9.7466    14.2344 opls-117      1 RES        0.423800
    2386 OW          19.5185     6.9373     8.0524 opls-116      1 RES       -0.847600
    2387 HW1         18.7912     6.2745     7.8743 opls-117      1 RES        0.423800
    2388 HW2         20.3711     6.6151     7.6410 opls-117      1 RES        0.423800
    2389 OW          25.1681    28.3039    24.9224 opls-116      1 RES       -0.847600
    2390 HW1         25.9635    27.8132    25.2780 opls-117      1 RES        0.423800
    2391 HW2         25.3534    28.6059    23.9873 opls-117      1 RES        0.423800
    2392 OW          10.3649    20.9223    14.7161 opls-116      1 RES       -0.847600
    2393 HW1          9.5801    20.3094    14.8084 opls-117      1 RES        0.423800
    2394 HW2         11.1699    20.4977    15.1304 opls-117      1 RES        0.423800
    2395 OW           9.4777     8.6429    17.8329 opls-116      1 RES       -0.847600
    2396 HW1          9.4673     9.4027    17.1828 opls-117      1 RES        0.423800
    2397 HW2          8.8325     8.8293    18.5738 opls-117      1 RES        0.423800
    2398 OW          20.8777    19.2628    24.5092 opls-116      1 RES       -0.847600
    2399 HW1         21.5976    19.9165    24.2757 opls-117      1 RES        0.423800
    2400 HW2         20.0390    19.7577    24.7365 opls-117      1 RES        0.423800
    2401 OW          13.0034    10.9591     6.9801 opls-116      1 RES       -0.847600
    2402 HW1         13.2172    10.0745     6.5655 opls-117      1 RES        0.423800
    2403 HW2         13.7974    11.2884     7.4910 opls-117      1 RES        0.423800
    2404 OW          12.7048    21.2740     3.3646 opls-116      1 RES       -0.847600
    2405 HW1         13.6424    21.0849     3.6563 opls-117      1 RES        0.423800
    2406 HW2         12.1014    20.5458     3.6894 opls-117      1 RES        0.423800
    2407 OW           3.1957     2.7492    26.0817 opls-116      1 RES       -0.847600
    2408 HW1          3.9553     3.3833    25.9371 opls-117      1 RES        0.423800
    2409 HW2          2.3456     3.1696    25.7646 opls-117      1 RES        0.423800
    2410 OW          26.5754    10.3288    21.8722 opls-116      1 RES       -0.847600
    2411 HW1         26.3878    11.2330    22.2559 opls-117      1 RES        0.423800
    2412 HW2         25.7425     9.9640    21.4560 opls-117      1 RES        0.423800
    2413 OW           6.6992     7.8205    29.8288 opls-116      1 RES       -0.847600
    2414 HW1          7.6567     7.8851    29.5478 opls-117      1 RES        0.423800
    2415 HW2          6.4858     6.8738    30.0702 opls-117      1 RES        0.423800
    2416 OW           3.5427    14.0456    22.5305 opls-116      1 RES       -0.847600
    2417 HW1          4.1633    13.6607    21.8474 opls-117      1 RES        0.423800
    2418 HW2          4.0482    14.2308    23.3733 opls-117      1 RES        0.423800
    2419 OW          10.0743     2.6773    19.0134 opls-116      1 RES       -0.847600
    2420 HW1         10.9624     2.2237    19.0872 opls-117      1 RES        0.423800
    2421 HW2          9.3667     1.9961    18.8259 opls-117      1 RES        0.423800
    2422 OW           8.1012    12.0324    25.8239 opls-116      1 RES       -0.847600
    2423 HW1          8.4072    12.4598    26.6745 opls-117      1 RES        0.423800
    2424 HW2          7.2851    12.5035    25.4890 opls-117      1 RES        0.423800
    2425 OW          25.4831     4.5786     9.6498 opls-116      1 RES       -0.847600
    2426 HW1         26.0869     5.3755     9.6298 opls-117      1 RES        0.423800
    2427 HW2         24.5556     4.8690     9.8849 opls-117      1 RES        0.423800
    2428 OW           5.6972    23.4363    23.5049 opls-116      1 RES       -0.847600
    2429 HW1          5.5020    22.4941    23.2326 opls-117      1 RES        0.423800
    2430 HW2          4.8873    24.0022    23.3511 opls-117      1 RES        0.423800
    2431 OW           2.2592    25.3536    16.7752 opls-116      1 RES       -0.847600
    2432 HW1          2.5160    24.8428    15.9547 opls-117      1 RES        0.423800
    2433 HW2          2.1115    24.7166    17.5317 opls-117      1 RES        0.423800
    2434 OW          12.2664    23.7441     4.8630 opls-116      1 RES       -0.847600
    2435 HW1         11.3459    23.7976     5.2503 opls-117      1 RES        0.423800
    2436 HW2         12.6741    24.6571     4.8453 opls-117      1 RES        0.423800
    2437 OW          23.0352    30.0713    12.9302 opls-116      1 RES       -0.847600
    2438 HW1         22.1979    30.0762    12.3835 opls-117      1 RES        0.423800
    2439 HW2         23.8266    29.9729    12.3269 opls-117      1 RES        0.423800
    2440 OW          25.1857    20.4687    29.2055 opls-116      1 RES       -0.847600
    2441 HW1         24.3950    20.4947    29.8172 opls-117      1 RES        0.423800
    2442 HW2         24.9408    19.9863    28.3645 opls-117      1 RES        0.423800
    2443 OW          27.2212    15.6218    23.5334 opls-116      1 RES       -0.847600
    2444 HW1         26.5454    14.8949    23.4110 opls-117      1 RES        0.423800
    2445 HW2         26.8484    16.4845    23.1917 opls-117      1 RES        0.423800
    2446 OW          10.9458     2.7793    24.7656 opls-116      1 RES       -0.847600
    2447 HW1         10.3537     3.2076    25.4482 opls-117      1 RES        0.423800
    2448 HW2         10.4725     1.9993    24.3562 opls-117      1 RES        0.423800
    2449 OW          20.9674    14.1628    20.3597 opls-116      1 RES       -0.847600
    2450 HW1         20.7989    13.2087    20.6074 opls-117      1 RES        0.423800
    2451 HW2         20.4549    14.7623    20.9744 opls-117      1 RES        0.423800
    2452 OW          15.9833    14.9053    11.3412 opls-116      1 RES       -0.847600
    2453 HW1         16.8226    14.3676    11.2604 opls-117      1 RES        0.423800
    2454 HW2         15.1973    14.2897    11.3978 opls-117      1 RES        0.423800
    2455 OW           7.5580    10.8119    11.1544 opls-116      1 RES       -0.847600
    2456 HW1          7.5348    11.7995    11.3096 opls-117      1 RES        0.423800
    2457 HW2          8.3337    10.4154    11.6454 opls-117      1 RES        0.423800
    2458 OW          15.2418     9.6177    14.2843 opls-116      1 RES       -0.847600
    2459 HW1         15.2292     9.8760    15.2502 opls-117      1 RES        0.423800
    2460 HW2         14.3035     9.5086    13.9561 opls-117      1 RES        0.423800
    2461 OW           6.6451     6.6706     3.4180 opls-116      1 RES       -0.847600
    2462 HW1          7.5516     7.0919     3.4452 opls-117      1 RES        0.423800
    2463 HW2          5.9593     7.3685     3.2112 opls-117      1 RES        0.423800
    2464 OW           9.0208    11.4617     9.6458 opls-116      1 RES       -0.847600
    2465 HW1          9.3712    10.6563     9.1678 opls-117      1 RES        0.423800
    2466 HW2          9.6816    12.2084     9.5694 opls-117      1 RES        0.423800
    2467 OW          13.2155    28.3391    28.8537 opls-116      1 RES       -0.847600
    2468 HW1         13.5208    27.4470    28.5206 opls-117      1 RES        0.423800
    2469 HW2         12.4345    28.2168    29.4661 opls-117      1 RES        0.423800
    2470 OW          20.8652     7.4972    13.4105 opls-116      1 RES       -0.847600
    2471 HW1         20.0622     7.0338    13.7853 opls-117      1 RES        0.423800
    2472 HW2         21.5025     6.8179    13.0466 opls-117      1 RES        0.423800
    2473 OW          14.7055    30.0576    29.6138 opls-116      1 RES       -0.847600
    2474 HW1         15.2215    29.2546    29.9119 opls-117      1 RES        0.423800
    2475 HW2         13.8160    30.0706    30.0706 opls-117      1 RES        0.423800
    2476 OW          14.7854    17.6227    21.5189 opls-116      1 RES       -0.847600
    2477 HW1         14.2475    17.8605    20.7101 opls-117      1 RES        0.423800
    2478 HW2         14.5472    16.6986    21.8177 opls-117      1 RES        0.423800
    2479 OW          13.0338    16.4358     6.9343 opls-116      1 RES       -0.847600
    2480 HW1         12.0539    16.6351     6.9325 opls-117      1 RES        0.423800
    2481 HW2         13.5011    17.0551     6.3033 opls-117      1 RES        0.423800
    2482 OW          29.0912     9.5936    29.3691 opls-116      1 RES       -0.847600
    2483 HW1         28.9569     8.8934    30.0703 opls-117      1 RES        0.423800
    2484 HW2         30.0702     9.7455    29.2329 opls-117      1 RES        0.423800
    2485 OW          11.8224    13.4742     5.3212 opls-116      1 RES       -0.847600
    2486 HW1         11.5879    12.8461     6.0631 opls-117      1 RES        0.423800
    2487 HW2         12.7203    13.8776     5.4972 opls-117      1 RES        0.423800
    2488 OW          11.5172     9.5586    14.9277 opls-116      1 RES       -0.847600
    2489 HW1         10.7476    10.0419    15.3450 opls-117      1 RES        0.423800
    2490 HW2         12.3746     9.9825    15.2195 opls-117      1 RES        0.423800
    2491 OW          22.7792    15.5580    23.8641 opls-116      1 RES       -0.847600
    2492 HW1         21.8648    15.5562    23.4593 opls-117      1 RES        0.423800
    2493 HW2         23.3569    14.8966    23.3857 opls-117      1 RES        0.423800
    2494 OW           8.0918    14.8297    24.1929 opls-116      1 RES       -0.847600
    2495 HW1          8.6311    15.3606    23.5392 opls-117      1 RES        0.423800
    2496 HW2          8.3999    13.8783    24.1843 opls-117      1 RES        0.423800
    2497 OW           7.7524    22.7629    20.4234 opls-116      1 RES       -0.847600
    2498 HW1          8.4984    22.2233    20.8137 opls-117      1 RES        0.423800
    2499 HW2          7.2975    22.2337    19.7072 opls-117      1 RES        0.423800
    2500 OW          14.5612    19.2822     1.9925 opls-116      1 RES       -0.847600
    2501 HW1         15.1077    19.7742     2.6702 opls-117      1 RES        0.423800
    2502 HW2         13.6129    19.5963     2.0375 opls-117      1 RES        0.423800
    2503 OW          28.6485    13.1129     7.6388 opls-116      1 RES       -0.847600
    2504 HW1         29.6472    13.0832     7.5974 opls-117      1 RES        0.423800
    2505 HW2         28.2843    12.1839     7.5728 opls-117      1 RES        0.423800
    2506 OW          10.0756     3.0104     3.1504 opls-116      1 RES       -0.847600
    2507 HW1         10.2069     2.2883     3.8296 opls-117      1 RES        0.423800
    2508 HW2         10.1423     3.9032     3.5960 opls-117      1 RES        0.423800
    2509 OW          11.8365    16.5250    21.5085 opls-116      1 RES       -0.847600
    2510 HW1         12.2586    17.4308    21.5460 opls-117      1 RES        0.423800
    2511 HW2         12.5494    15.8240    21.5290 opls-117      1 RES        0.423800
    2512 OW           6.3750    27.4237    17.4897 opls-116      1 RES       -0.847600
    2513 HW1          6.6860    28.0702    16.7931 opls-117      1 RES        0.423800
    2514 HW2          7.0618    27.3577    18.2135 opls-117      1 RES        0.423800
    2515 OW          12.8493    13.0101    22.0426 opls-116      1 RES       -0.847600
    2516 HW1         12.1576    12.3932    21.6671 opls-117      1 RES        0.423800
    2517 HW2         12.4025    13.8197    22.4232 opls-117      1 RES        0.423800
    2518 OW           8.7883    14.9383    27.7748 opls-116      1 RES       -0.847600
    2519 HW1          9.4671    14.3535    27.3307 opls-117      1 RES        0.423800
    2520 HW2          9.1409    15.8722    27.8344 opls-117      1 RES        0.423800
    2521 OW          29.2722    16.9649     9.7087 opls-116      1 RES       -0.847600
    2522 HW1         29.5457    16.9531    10.6705 opls-117      1 RES        0.423800
    2523 HW2         30.0774    16.8288     9.1315 opls-117      1 RES        0.423800
    2524 OW          28.3412    13.8634    24.2356 opls-116      1 RES       -0.847600
    2525 HW1         29.3163    13.9121    24.0192 opls-117      1 RES        0.423800
    2526 HW2         28.0184    12.9253    24.1105 opls-117      1 RES        0.423800
    2527 OW           8.5237    29.7300     4.4750 opls-116      1 RES       -0.847600
    2528 HW1          7.9161    30.0561     5.1992 opls-117      1 RES        0.423800
    2529 HW2          9.4696    29.7510     4.7989 opls-117      1 RES        0.423800
    2530 OW          12.8879    18.3932    25.0232 opls-116      1 RES       -0.847600
    2531 HW1         12.1391    18.1027    25.6189 opls-117      1 RES        0.423800
    2532 HW2         13.0822    17.6732    24.3569 opls-117      1 RES        0.423800
    2533 OW          22.6098    15.7611    14.8723 opls-116      1 RES       -0.847600
    2534 HW1         23.0646    15.9429    15.7441 opls-117      1 RES        0.423800
    2535 HW2         22.4791    14.7756    14.7637 opls-117      1 RES        0.423800
    2536 OW           8.3266    29.5204    16.4173 opls-116      1 RES       -0.847600
    2537 HW1          8.4701    30.0701    17.2403 opls-117      1 RES        0.423800
    2538 HW2          7.8547    30.0697    15.7277 opls-117      1 RES        0.423800
    2539 OW          26.0063    13.3119    29.7749 opls-116      1 RES       -0.847600
    2540 HW1         26.3260    13.4949    28.8452 opls-117      1 RES        0.423800
    2541 HW2         26.3356    12.4150    30.0701 opls-117      1 RES        0.423800
    2542 OW          20.2671    23.3017     9.7234 opls-116      1 RES       -0.847600
    2543 HW1         20.7369    22.9094     8.9326 opls-117      1 RES        0.423800
    2544 HW2         19.5071    22.7080     9.9879 opls-117      1 RES        0.423800
    2545 OW          12.9510     6.0047     3.2694 opls-116      1 RES       -0.847600
    2546 HW1         13.9054     6.1787     3.0268 opls-117      1 RES        0.423800
    2547 HW2         12.7598     5.0264     3.1892 opls-117      1 RES        0.423800
    2548 OW          15.2517    13.5855    23.5211 opls-116      1 RES       -0.847600
    2549 HW1         15.3962    14.0061    22.6254 opls-117      1 RES        0.423800
    2550 HW2         14.5344    12.8922    23.4519 opls-117      1 RES        0.423800
    2551 OW          13.7396     5.7618    21.6618 opls-116      1 RES       -0.847600
    2552 HW1         12.8203     5.4267    21.8678 opls-117      1 RES        0.423800
    2553 HW2         14.4116     5.0619    21.9038 opls-117      1 RES        0.423800
    2554 OW          22.0573    16.1157     3.3530 opls-116      1 RES       -0.847600
    2555 HW1         22.4183    15.2031     3.1608 opls-117      1 RES        0.423800
    2556 HW2         21.4972    16.0850     4.1809 opls-117      1 RES        0.423800
    2557 OW          13.7242    25.0097     9.1617 opls-116      1 RES       -0.847600
    2558 HW1         14.6358    24.8687     8.7756 opls-117      1 RES        0.423800
    2559 HW2         13.7721    24.9527    10.1589 opls-117      1 RES        0.423800
    2560 OW           7.8664    22.4834    25.1695 opls-116      1 RES       -0.847600
    2561 HW1          7.4060    22.2633    24.3095 opls-117      1 RES        0.423800
    2562 HW2          7.3393    23.1758    25.6621 opls-117      1 RES        0.423800
    2563 OW          24.4571    13.9493     4.0051 opls-116      1 RES       -0.847600
    2564 HW1         23.7141    13.4668     3.5413 opls-117      1 RES        0.423800
    2565 HW2         24.5422    14.8716     3.6281 opls-117      1 RES        0.423800
    2566 OW          29.5158    23.5178    26.7836 opls-116      1 RES       -0.847600
    2567 HW1         28.6563    23.0089    26.8297 opls-117      1 RES        0.423800
    2568 HW2         30.0700    23.3097    27.5895 opls-117      1 RES        0.423800
    2569 OW          23.7936    23.7632    20.4311 opls-116      1 RES       -0.847600
    2570 HW1         24.2473    23.5949    21.3063 opls-117      1 RES        0.423800
    2571 HW2         22.8076    23.8438    20.5769 opls-117      1 RES        0.423800
    2572 OW           9.2730    22.4776    18.7706 opls-116      1 RES       -0.847600
    2573 HW1         10.0789    22.0040    19.1259 opls-117      1 RES        0.423800
    2574 HW2          9.3832    23.4635    18.8968 opls-117      1 RES        0.423800
    2575 OW          10.6963    20.0974    10.1696 opls-116      1 RES       -0.847600
    2576 HW1          9.9971    20.8123    10.1605 opls-117      1 RES        0.423800
    2577 HW2         10.2613    19.2043    10.0550 opls-117      1 RES        0.423800
    2578 OW           8.4386    22.1547    11.2732 opls-116      1 RES       -0.847600
    2579 HW1          8.2964    21.1918    11.5026 opls-117      1 RES        0.423800
    2580 HW2          7.6520    22.4943    10.7575 opls-117      1 RES        0.423800
    2581 OW          14.7694    29.0927     7.2923 opls-116      1 RES       -0.847600
    2582 HW1         15.6268    28.5948     7.1617 opls-117      1 RES        0.423800
    2583 HW2         14.9565    30.0742     7.3313 opls-117      1 RES        0.423800
    2584 OW          16.3059    20.4193    11.7671 opls-116      1 RES       -0.847600
    2585 HW1         15.8430    20.5780    10.8950 opls-117      1 RES        0.423800
    2586 HW2         17.0008    21.1243    11.9087 opls-117      1 RES        0.423800
    2587 OW          23.8995    23.5170    12.3297 opls-116      1 RES       -0.847600
    2588 HW1         23.6443    23.9184    11.4500 opls-117      1 RES        0.423800
    2589 HW2         24.7942    23.0778    12.2486 opls-117      1 RES        0.423800
    2590 OW          23.6674    10.7900    22.3602 opls-116      1 RES       -0.847600
    2591 HW1         23.6288     9.8392    22.0526 opls-117      1 RES        0.423800
    2592 HW2         24.3716    10.8843    23.0638 opls-117      1 RES        0.423800
    2593 OW          12.9616     9.1447     3.0735 opls-116      1 RES       -0.847600
    2594 HW1         12.8907     8.1677     2.8724 opls-117      1 RES        0.423800
    2595 HW2         12.9168     9.6647     2.2205 opls-117      1 RES        0.423800
    2596 OW          14.0713    15.0451    25.1398 opls-116      1 RES       -0.847600
    2597 HW1         13.7353    14.1039    25.1052 opls-117      1 RES        0.423800
    2598 HW2         14.4749    15.2221    26.0375 opls-117      1 RES        0.423800
    2599 OW          11.8836     5.3885     7.1348 opls-116      1 RES       -0.847600
    2600 HW1         12.7793     5.6112     6.7502 opls-117      1 RES        0.423800
    2601 HW2         11.9980     4.7589     7.9033 opls-117      1 RES        0.423800
    2602 OW          25.9374    12.5514    20.1378 opls-116      1 RES       -0.847600
    2603 HW1         26.6342    13.1266    20.5663 opls-117      1 RES        0.423800
    2604 HW2         26.2661    11.6081    20.0916 opls-117      1 RES        0.423800
    2605 OW          12.8271    28.8004    26.7380 opls-116      1 RES       -0.847600
    2606 HW1         11.9228    28.5546    27.0869 opls-117      1 RES        0.423800
    2607 HW2         12.8570    29.7825    26.5520 opls-117      1 RES        0.423800
    2608 OW          26.2750    18.7911    23.6292 opls-116      1 RES       -0.847600
    2609 HW1         26.9760    18.6647    22.9273 opls-117      1 RES        0.423800
    2610 HW2         26.6774    19.2451    24.4242 opls-117      1 RES        0.423800
    2611 OW          22.4931    26.3082    10.4015 opls-116      1 RES       -0.847600
    2612 HW1         22.9037    26.5041     9.5110 opls-117      1 RES        0.423800
    2613 HW2         21.5022    26.4306    10.3459 opls-117      1 RES        0.423800
    2614 OW          17.1416    15.3345    30.0861 opls-116      1 RES       -0.847600
    2615 HW1         16.9122    14.4656    29.6476 opls-117      1 RES        0.423800
    2616 HW2         16.5250    16.0484    29.7543 opls-117      1 RES        0.423800
    2617 OW          11.1619    27.5961    12.8257 opls-116      1 RES       -0.847600
    2618 HW1         10.4913    28.3377    12.8051 opls-117      1 RES        0.423800
    2619 HW2         10.6859    26.7167    12.8426 opls-117      1 RES        0.423800
    2620 OW          16.7492    17.1590     3.6049 opls-116      1 RES       -0.847600
    2621 HW1         16.5848    17.4158     2.6526 opls-117      1 RES        0.423800
    2622 HW2         16.9440    16.1796     3.6572 opls-117      1 RES        0.423800
    2623 OW          18.4218    17.9110    30.0317 opls-116      1 RES       -0.847600
    2624 HW1         18.9689    18.7472    30.0705 opls-117      1 RES        0.423800
    2625 HW2         17.4505    18.1485    30.0174 opls-117      1 RES        0.423800
    2626 OW           3.8937    18.1314    14.9720 opls-116      1 RES       -0.847600
    2627 HW1          4.3627    17.2712    14.7719 opls-117      1 RES        0.423800
    2628 HW2          4.5634    18.8724    15.0218 opls-117      1 RES        0.423800
    2629 OW          10.7896    13.7980    25.2938 opls-116      1 RES       -0.847600
    2630 HW1         10.0824    13.0990    25.4001 opls-117      1 RES        0.423800
    2631 HW2         10.3617    14.7007    25.2478 opls-117      1 RES        0.423800
    2632 OW           3.2028    28.5783     3.1414 opls-116      1 RES       -0.847600
    2633 HW1          4.1410    28.2512     3.0285 opls-117      1 RES        0.423800
    2634 HW2          2.5905    27.7978     3.2671 opls-117      1 RES        0.423800
    2635 OW          17.5042    25.3738    27.6676 opls-116      1 RES       -0.847600
    2636 HW1         16.7872    24.7158    27.8977 opls-117      1 RES        0.423800
    2637 HW2         18.1797    24.9366    27.0738 opls-117      1 RES        0.423800
    2638 OW          12.3500     9.8230    18.2869 opls-116      1 RES       -0.847600
    2639 HW1         11.6032     9.6565    17.6431 opls-117      1 RES        0.423800
    2640 HW2         12.4301    10.8051    18.4578 opls-117      1 RES        0.423800
    2641 OW           2.6719    16.5930     8.5136 opls-116      1 RES       -0.847600
    2642 HW1          2.8933    15.8287     7.9080 opls-117      1 RES        0.423800
    2643 HW2          1.9981    17.1846     8.0710 opls-117      1 RES        0.423800
    2644 OW          26.8099    28.6723    12.1290 opls-116      1 RES       -0.847600
    2645 HW1         26.8891    29.2228    11.2979 opls-117      1 RES        0.423800
    2646 HW2         25.9118    28.2332    12.1537 opls-117      1 RES        0.423800
    2647 OW           2.7133    14.8648     5.9243 opls-116      1 RES       -0.847600
    2648 HW1          2.1992    14.0085     5.9749 opls-117      1 RES        0.423800
    2649 HW2          3.6653    14.6977     6.1808 opls-117      1 RES        0.423800
    2650 OW          23.6738    12.0762    28.6718 opls-116      1 RES       -0.847600
    2651 HW1         24.1003    12.1630    29.5721 opls-117      1 RES        0.423800
    2652 HW2         23.6589    12.9694    28.2224 opls-117      1 RES        0.423800
    2653 OW          17.6215    12.2003    23.0594 opls-116      1 RES       -0.847600
    2654 HW1         18.4877    11.7084    22.9723 opls-117      1 RES        0.423800
    2655 HW2         17.7980    13.1843    23.0835 opls-117      1 RES        0.423800
    2656 OW          16.4540     4.7266     8.3089 opls-116      1 RES       -0.847600
    2657 HW1         17.2612     4.3806     8.7872 opls-117      1 RES        0.423800
    2658 HW2         16.5292     5.7180     8.2023 opls-117      1 RES        0.423800
    2659 OW          15.4588    29.1849     9.4992 opls-116      1 RES       -0.847600
    2660 HW1         16.1852    28.5512     9.7650 opls-117      1 RES        0.423800
    2661 HW2         15.8497    30.0907     9.3362 opls-117      1 RES        0.423800
    2662 OW          21.9471     6.4529    27.1757 opls-116      1 RES       -0.847600
    2663 HW1         22.7191     6.1934    26.5955 opls-117      1 RES        0.423800
    2664 HW2         21.1782     5.8374    27.0026 opls-117      1 RES        0.423800
    2665 OW          10.5542     7.6999     8.1687 opls-116      1 RES       -0.847600
    2666 HW1         11.5226     7.9492     8.1647 opls-117      1 RES        0.423800
    2667 HW2         10.4664     6.7039     8.1838 opls-117      1 RES        0.423800
    2668 OW          11.2508    20.2558    12.2926 opls-116      1 RES       -0.847600
    2669 HW1         10.3228    19.9740    12.5365 opls-117      1 RES        0.423800
    2670 HW2         11.8558    20.1262    13.0782 opls-117      1 RES        0.423800
    2671 OW          13.3456    21.6719    10.5210 opls-116      1 RES       -0.847600
    2672 HW1         12.4650    21.2633    10.7609 opls-117      1 RES        0.423800
    2673 HW2         13.2268    22.6527    10.3661 opls-117      1 RES        0.423800
    2674 OW          20.5233    15.7524    26.3974 opls-116      1 RES       -0.847600
    2675 HW1         21.0428    16.1357    27.1611 opls-117      1 RES        0.423800
    2676 HW2         19.5887    15.5572    26.6947 opls-117      1 RES        0.423800
    2677 OW          13.9143     8.2277    19.8853 opls-116      1 RES       -0.847600
    2678 HW1         14.9007     8.0870    19.8009 opls-117      1 RES        0.423800
    2679 HW2         13.6691     8.2973    20.8523 opls-117      1 RES        0.423800
    2680 OW          20.0475    28.8943    28.8270 opls-116      1 RES       -0.847600
    2681 HW1         20.8933    28.4761    28.4956 opls-117      1 RES        0.423800
    2682 HW2         20.1868    29.8771    28.9480 opls-117      1 RES        0.423800
    2683 OW          10.1427    13.3177    11.4118 opls-116      1 RES       -0.847600
    2684 HW1         11.0470    13.1189    11.0339 opls-117      1 RES        0.423800
    2685 HW2         10.2356    13.6038    12.3655 opls-117      1 RES        0.423800
    2686 OW           4.6262    13.4843    11.4947 opls-116      1 RES       -0.847600
    2687 HW1          5.0411    13.3367    10.5969 opls-117      1 RES        0.423800
    2688 HW2          4.8209    12.7008    12.0848 opls-117      1 RES        0.423800
    2689 OW           5.8573    20.2757    11.6041 opls-116      1 RES       -0.847600
    2690 HW1          6.6811    19.7131    11.6746 opls-117      1 RES        0.423800
    2691 HW2          6.1050    21.2411    11.6850 opls-117      1 RES        0.423800
    2692 OW          17.8608    11.4435     4.7154 opls-116      1 RES       -0.847600
    2693 HW1         16.9560    11.7866     4.9676 opls-117      1 RES        0.423800
    2694 HW2         17.7739    10.8047     3.9510 opls-117      1 RES        0.423800
    2695 OW           2.8560    29.2374    14.8716 opls-116      1 RES       -0.847600
    2696 HW1          3.1857    29.3311    15.8110 opls-117      1 RES        0.423800
    2697 HW2          1.9986    28.7229    14.8691 opls-117      1 RES        0.423800
    2698 OW          27.3314    15.0241     5.1187 opls-116      1 RES       -0.847600
    2699 HW1         26.5493    14.8394     4.5235 opls-117      1 RES        0.423800
    2700 HW2         27.0076    15.3934     5.9897 opls-117      1 RES        0.423800
    2701 OW           2.5039    29.5627    20.4838 opls-116      1 RES       -0.847600
    2702 HW1          1.9999    30.0702    21.1827 opls-117      1 RES        0.423800
    2703 HW2          2.5914    28.6068    20.7641 opls-117      1 RES        0.423800
    2704 OW          17.9910    22.6896    28.5645 opls-116      1 RES       -0.847600
    2705 HW1         17.3682    22.5972    27.7876 opls-117      1 RES        0.423800
    2706 HW2         18.9313    22.5438    28.2570 opls-117      1 RES        0.423800
    2707 OW           7.5805    22.2577     2.0442 opls-116      1 RES       -0.847600
    2708 HW1          6.6876    22.7064     2.0054 opls-117      1 RES        0.423800
    2709 HW2          8.3027    22.9470     1.9872 opls-117      1 RES        0.423800
    2710 OW           2.3917    10.0423    10.0409 opls-116      1 RES       -0.847600
    2711 HW1          2.0002     9.1474     9.8268 opls-117      1 RES        0.423800
    2712 HW2          2.2578    10.6590     9.2652 opls-117      1 RES        0.423800
    2713 OW          18.8553    11.5485    14.3270 opls-116      1 RES       -0.847600
    2714 HW1         18.3401    10.7063    14.4863 opls-117      1 RES        0.423800
    2715 HW2         19.8324    11.3676    14.4388 opls-117      1 RES        0.423800
    2716 OW          20.0557    20.3921    19.8433 opls-116      1 RES       -0.847600
    2717 HW1         19.4553    21.0468    20.3025 opls-117      1 RES        0.423800
    2718 HW2         19.5091    19.6403    19.4744 opls-117      1 RES        0.423800
    2719 OW          24.7595    15.8136    26.4722 opls-116      1 RES       -0.847600
    2720 HW1         23.9732    15.8270    27.0899 opls-117      1 RES        0.423800
    2721 HW2         25.5067    15.3007    26.8949 opls-117      1 RES        0.423800
    2722 OW          25.5612    19.9758    17.9319 opls-116      1 RES       -0.847600
    2723 HW1         24.7297    19.6825    18.4037 opls-117      1 RES        0.423800
    2724 HW2         26.3601    19.7306    18.4810 opls-117      1 RES        0.423800
    2725 OW          16.8297    10.4358     1.9990 opls-116      1 RES       -0.847600
    2726 HW1         16.9662    11.4265     2.0014 opls-117      1 RES        0.423800
    2727 HW2         15.8503    10.2342     1.9982 opls-117      1 RES        0.423800
    2728 OW          14.7809    27.9463     2.4010 opls-116      1 RES       -0.847600
    2729 HW1         14.8983    27.0410     1.9927 opls-117      1 RES        0.423800
    2730 HW2         14.3305    27.8555     3.2892 opls-117      1 RES        0.423800
    2731 OW          18.3324    12.2063    17.2870 opls-116      1 RES       -0.847600
    2732 HW1         18.5009    11.2456    17.5074 opls-117      1 RES        0.423800
    2733 HW2         19.0804    12.5548    16.7221 opls-117      1 RES        0.423800
    2734 OW          20.7939     9.8469    26.9812 opls-116      1 RES       -0.847600
    2735 HW1         19.8578     9.8593    26.6299 opls-117      1 RES        0.423800
    2736 HW2         20.8205    10.2949    27.8749 opls-117      1 RES        0.423800
    2737 OW          28.9704     6.8365    18.6182 opls-116      1 RES       -0.847600
    2738 HW1         27.9795     6.9711    18.6195 opls-117      1 RES        0.423800
    2739 HW2         29.4235     7.6923    18.8676 opls-117      1 RES        0.423800
    2740 OW          10.2561     6.8262     4.3469 opls-116      1 RES       -0.847600
    2741 HW1         10.5073     5.8717     4.5075 opls-117      1 RES        0.423800
    2742 HW2          9.3435     6.9977     4.7181 opls-117      1 RES        0.423800
    2743 OW           9.7677     2.1761    12.9803 opls-116      1 RES       -0.847600
    2744 HW1          9.4394     1.9997    13.9083 opls-117      1 RES        0.423800
    2745 HW2          9.0016     2.4611    12.4043 opls-117      1 RES        0.423800
    2746 OW          11.5957    30.0734    21.4332 opls-116      1 RES       -0.847600
    2747 HW1         11.5537    29.9594    20.4406 opls-117      1 RES        0.423800
    2748 HW2         10.7728    29.6855    21.8484 opls-117      1 RES        0.423800
    2749 OW          24.1055     4.9924    24.2558 opls-116      1 RES       -0.847600
    2750 HW1         23.3416     4.4849    23.8572 opls-117      1 RES        0.423800
    2751 HW2         24.9685     4.5996    23.9380 opls-117      1 RES        0.423800
    2752 OW          26.8581    19.4354    13.8205 opls-116      1 RES       -0.847600
    2753 HW1         26.5434    18.5041    13.6370 opls-117      1 RES        0.423800
    2754 HW2         27.5237    19.7054    13.1247 opls-117      1 RES        0.423800
    2755 OW          23.7581    27.2117     2.6623 opls-116      1 RES       -0.847600
    2756 HW1         24.5595    27.7450     2.3915 opls-117      1 RES        0.423800
    2757 HW2         23.9400    26.2393     2.5166 opls-117      1 RES        0.423800
    2758 OW          30.0442    26.0199    21.2585 opls-116      1 RES       -0.847600
    2759 HW1         30.0652    25.0720    20.9407 opls-117      1 RES        0.423800
    2760 HW2         30.0704    26.6360    20.4713 opls-117      1 RES        0.423800
    2761 OW           3.2453     4.9902    23.4035 opls-116      1 RES       -0.847600
    2762 HW1          3.9668     5.6008    23.7300 opls-117      1 RES        0.423800
    2763 HW2          3.1886     4.1912    24.0022 opls-117      1 RES        0.423800
    2764 OW          26.6490    25.9570    16.6806 opls-116      1 RES       -0.847600
    2765 HW1         25.6841    26.2186    16.7003 opls-117      1 RES        0.423800
    2766 HW2         26.8985    25.6729    15.7548 opls-117      1 RES        0.423800
    2767 OW           5.9480     2.4854    27.4571 opls-116      1 RES       -0.847600
    2768 HW1          5.0102     2.1384    27.4661 opls-117      1 RES        0.423800
    2769 HW2          6.0194     3.2359    26.8000 opls-117      1 RES        0.423800
    2770 OW          20.2146    27.8327     8.9245 opls-116      1 RES       -0.847600
    2771 HW1         20.1088    27.9428     7.9363 opls-117      1 RES        0.423800
    2772 HW2         21.0649    28.2685     9.2194 opls-117      1 RES        0.423800
    2773 OW           7.7275    25.3914    15.7726 opls-116      1 RES       -0.847600
    2774 HW1          7.2724    24.5027    15.7156 opls-117      1 RES        0.423800
    2775 HW2          7.0401    26.1132    15.8535 opls-117      1 RES        0.423800
    2776 OW          12.3547    11.3154     4.6006 opls-116      1 RES       -0.847600
    2777 HW1         12.3813    11.2926     3.6012 opls-117      1 RES        0.423800
    2778 HW2         13.1715    11.7779     4.9453 opls-117      1 RES        0.423800
    2779 OW          17.5880    18.3878    16.1450 opls-116      1 RES       -0.847600
    2780 HW1         18.2524    18.6352    15.4398 opls-117      1 RES        0.423800
    2781 HW2         17.9297    18.6743    17.0401 opls-117      1 RES        0.423800
    2782 OW          27.8890    21.9690    18.8502 opls-116      1 RES       -0.847600
    2783 HW1         27.6546    21.2254    19.4763 opls-117      1 RES        0.423800
    2784 HW2         28.7178    22.4268    19.1719 opls-117      1 RES        0.423800
    2785 OW           7.5426    14.0118    12.6391 opls-116      1 RES       -0.847600
    2786 HW1          7.6272    14.4849    13.5161 opls-117      1 RES        0.423800
    2787 HW2          6.5812    13.9869    12.3652 opls-117      1 RES        0.423800
    2788 OW           4.2194     4.5884    18.3693 opls-116      1 RES       -0.847600
    2789 HW1          3.8695     5.4728    18.6780 opls-117      1 RES        0.423800
    2790 HW2          5.1028     4.4097    18.8027 opls-117      1 RES        0.423800
    2791 OW          27.2343    19.4978    28.9572 opls-116      1 RES       -0.847600
    2792 HW1         26.7815    19.0472    29.7266 opls-117      1 RES        0.423800
    2793 HW2         27.6450    18.8076    28.3615 opls-117      1 RES        0.423800
    2794 OW          29.5417     4.2679     8.7222 opls-116      1 RES       -0.847600
    2795 HW1         28.5644     4.0754     8.8102 opls-117      1 RES        0.423800
    2796 HW2         30.0307     3.4212     8.5124 opls-117      1 RES        0.423800
    2797 OW          21.0019     3.4506    21.6633 opls-116      1 RES       -0.847600
    2798 HW1         21.4963     2.6300    21.9502 opls-117      1 RES        0.423800
    2799 HW2         21.3145     4.2333    22.2016 opls-117      1 RES        0.423800
    2800 OW           4.2996    17.6713     6.4183 opls-116      1 RES       -0.847600
    2801 HW1          3.9126    17.9421     7.2997 opls-117      1 RES        0.423800
    2802 HW2          3.7903    16.8903     6.0565 opls-117      1 RES        0.423800
    2803 OW          11.0486    28.9035     6.4166 opls-116      1 RES       -0.847600
    2804 HW1         10.1403    28.4928     6.4959 opls-117      1 RES        0.423800
    2805 HW2         11.4119    28.7348     5.5003 opls-117      1 RES        0.423800
    2806 OW          19.1554    24.2843     5.0946 opls-116      1 RES       -0.847600
    2807 HW1         19.2456    23.7557     5.9386 opls-117      1 RES        0.423800
    2808 HW2         18.2736    24.0832     4.6679 opls-117      1 RES        0.423800
    2809 OW          14.7598    20.4518    13.9988 opls-116      1 RES       -0.847600
    2810 HW1         13.8366    20.7726    13.7872 opls-117      1 RES        0.423800
    2811 HW2         14.9260    20.5389    14.9810 opls-117      1 RES        0.423800
    2812 OW          27.8715    18.2035     4.4784 opls-116      1 RES       -0.847600
    2813 HW1         26.8815    18.1284     4.3584 opls-117      1 RES        0.423800
    2814 HW2         28.2588    18.7375     3.7269 opls-117      1 RES        0.423800
    2815 OW           4.0352    14.1604    14.2535 opls-116      1 RES       -0.847600
    2816 HW1          4.9052    14.1046    13.7637 opls-117      1 RES        0.423800
    2817 HW2          4.0344    14.9701    14.8404 opls-117      1 RES        0.423800
    2818 OW          25.1519    11.3398    14.4399 opls-116      1 RES       -0.847600
    2819 HW1         25.6792    12.1710    14.6163 opls-117      1 RES        0.423800
    2820 HW2         24.1981    11.4885    14.7010 opls-117      1 RES        0.423800
    2821 OW           9.2898    16.3627    19.4441 opls-116      1 RES       -0.847600
    2822 HW1          8.5857    15.6526    19.4397 opls-117      1 RES        0.423800
    2823 HW2          8.8564    17.2615    19.5092 opls-117      1 RES        0.423800
    2824 OW          13.2877    27.5963     5.6593 opls-116      1 RES       -0.847600
    2825 HW1         12.9766    27.0933     4.8530 opls-117      1 RES        0.423800
    2826 HW2         14.1887    27.9908     5.4790 opls-117      1 RES        0.423800
    2827 OW           5.9496    28.0250    20.4424 opls-116      1 RES       -0.847600
    2828 HW1          5.0331    27.7469    20.1548 opls-117      1 RES        0.423800
    2829 HW2          6.5037    27.2121    20.6217 opls-117      1 RES        0.423800
    2830 OW          28.9184     4.4990    17.4571 opls-116      1 RES       -0.847600
    2831 HW1         29.7909     4.9215    17.7026 opls-117      1 RES        0.423800
    2832 HW2         28.1963     4.8577    18.0485 opls-117      1 RES        0.423800
    2833 OW          14.0020    21.7201    17.7267 opls-116      1 RES       -0.847600
    2834 HW1         14.9742    21.4867    17.7097 opls-117      1 RES        0.423800
    2835 HW2         13.8981    22.7147    17.7344 opls-117      1 RES        0.423800
    2836 OW          23.6334    16.5762    13.1037 opls-116      1 RES       -0.847600
    2837 HW1         23.5419    17.1816    12.3131 opls-117      1 RES        0.423800
    2838 HW2         24.0024    15.6951    12.8078 opls-117      1 RES        0.423800
    2839 OW          14.9870    14.1720    13.8414 opls-116      1 RES       -0.847600
    2840 HW1         15.5937    13.7071    14.4862 opls-117      1 RES        0.423800
    2841 HW2         15.4477    14.9796    13.4734 opls-117      1 RES        0.423800
    2842 OW          15.3188    12.9757     7.6248 opls-116      1 RES       -0.847600
    2843 HW1         15.4371    12.4074     8.4390 opls-117      1 RES        0.423800
    2844 HW2         16.1484    12.9370     7.0679 opls-117      1 RES        0.423800
    2845 OW          13.2141    16.9769     2.7111 opls-116      1 RES       -0.847600
    2846 HW1         12.7791    17.5608     2.0257 opls-117      1 RES        0.423800
    2847 HW2         14.0577    17.4089     3.0300 opls-117      1 RES        0.423800
    2848 OW          26.5007    20.0557    10.0086 opls-116      1 RES       -0.847600
    2849 HW1         27.3889    19.8910     9.5798 opls-117      1 RES        0.423800
    2850 HW2         26.2484    21.0166     9.8940 opls-117      1 RES        0.423800
    2851 OW          12.4648    13.8393     2.8520 opls-116      1 RES       -0.847600
    2852 HW1         11.5432    13.5813     3.1419 opls-117      1 RES        0.423800
    2853 HW2         13.1380    13.3475     3.4043 opls-117      1 RES        0.423800
    2854 OW          17.8477     8.3171     4.1690 opls-116      1 RES       -0.847600
    2855 HW1         17.8784     8.4867     3.1840 opls-117      1 RES        0.423800
    2856 HW2         17.0762     8.8121     4.5687 opls-117      1 RES        0.423800
    2857 OW           9.9032    24.1117    16.8157 opls-116      1 RES       -0.847600
    2858 HW1          9.2276    23.4927    16.4154 opls-117      1 RES        0.423800
    2859 HW2          9.7979    25.0228    16.4172 opls-117      1 RES        0.423800
    2860 OW           8.0994    19.6002     9.9973 opls-116      1 RES       -0.847600
    2861 HW1          7.9472    20.4310     9.4619 opls-117      1 RES        0.423800
    2862 HW2          7.6689    18.8237     9.5373 opls-117      1 RES        0.423800
    2863 OW          16.3578    21.9658    23.8149 opls-116      1 RES       -0.847600
    2864 HW1         17.0088    22.7213    23.8880 opls-117      1 RES        0.423800
    2865 HW2         15.8649    21.8657    24.6793 opls-117      1 RES        0.423800
    2866 OW          13.5736    26.9897    23.3064 opls-116      1 RES       -0.847600
    2867 HW1         12.6349    27.2807    23.1216 opls-117      1 RES        0.423800
    2868 HW2         14.0662    27.7270    23.7686 opls-117      1 RES        0.423800
    2869 OW          10.1438    20.7934     4.6622 opls-116      1 RES       -0.847600
    2870 HW1         10.0253    21.7832     4.5824 opls-117      1 RES        0.423800
    2871 HW2          9.2566    20.3641     4.8317 opls-117      1 RES        0.423800
    2872 OW           6.2114    10.9604    13.7523 opls-116      1 RES       -0.847600
    2873 HW1          6.0751    11.0302    12.7641 opls-117      1 RES        0.423800
    2874 HW2          6.9248    11.6010    14.0364 opls-117      1 RES        0.423800
    2875 OW          25.5993    19.6574    12.0188 opls-116      1 RES       -0.847600
    2876 HW1         25.7999    20.6318    12.1196 opls-117      1 RES        0.423800
    2877 HW2         24.6234    19.5349    11.8382 opls-117      1 RES        0.423800
    2878 OW          26.4138    10.0614    24.4747 opls-116      1 RES       -0.847600
    2879 HW1         25.9480     9.7496    25.3028 opls-117      1 RES        0.423800
    2880 HW2         26.4143    11.0611    24.4490 opls-117      1 RES        0.423800
    2881 OW          12.6376    29.3986    23.7127 opls-116      1 RES       -0.847600
    2882 HW1         11.9083    30.0823    23.6883 opls-117      1 RES        0.423800
    2883 HW2         13.5257    29.8580    23.7010 opls-117      1 RES        0.423800
    2884 OW          21.6431     2.7349    26.1672 opls-116      1 RES       -0.847600
    2885 HW1         21.2534     3.5745    26.5455 opls-117      1 RES        0.423800
    2886 HW2         20.9672     1.9999    26.2210 opls-117      1 RES        0.423800
    2887 OW          11.7536     6.9978    13.1271 opls-116      1 RES       -0.847600
    2888 HW1         11.2663     7.7298    13.6033 opls-117      1 RES        0.423800
    2889 HW2         11.6258     6.1369    13.6195 opls-117      1 RES        0.423800
    2890 OW           8.8317    12.6698    13.8112 opls-116      1 RES       -0.847600
    2891 HW1          8.8670    12.0228    13.0495 opls-117      1 RES        0.423800
    2892 HW2          9.7108    12.6718    14.2879 opls-117      1 RES        0.423800
    2893 OW          23.6028     5.2860    29.2023 opls-116      1 RES       -0.847600
    2894 HW1         24.3581     5.9128    29.3934 opls-117      1 RES        0.423800
    2895 HW2         22.7522     5.8049    29.1178 opls-117      1 RES        0.423800
    2896 OW          15.8133     8.0964     2.5346 opls-116      1 RES       -0.847600
    2897 HW1         15.4812     7.3196     1.9996 opls-117      1 RES        0.423800
    2898 HW2         15.0592     8.4815     3.0666 opls-117      1 RES        0.423800
    2899 OW           6.4582    16.5051    18.4565 opls-116      1 RES       -0.847600
    2900 HW1          5.6048    16.0295    18.2429 opls-117      1 RES        0.423800
    2901 HW2          7.1782    16.1920    17.8372 opls-117      1 RES        0.423800
    2902 OW          21.8223    19.0046    10.7999 opls-116      1 RES       -0.847600
    2903 HW1         22.5179    18.9581    11.5169 opls-117      1 RES        0.423800
    2904 HW2         22.2521    19.2639     9.9350 opls-117      1 RES        0.423800
    2905 OW           8.5394     8.0565     9.9995 opls-116      1 RES       -0.847600
    2906 HW1          8.7605     7.2422     9.4628 opls-117      1 RES        0.423800
    2907 HW2          8.2336     8.7860     9.3877 opls-117      1 RES        0.423800
    2908 OW           9.2752    29.1809    19.4160 opls-116      1 RES       -0.847600
    2909 HW1          9.7924    29.9850    19.1230 opls-117      1 RES        0.423800
    2910 HW2          9.8121    28.6640    20.0827 opls-117      1 RES        0.423800
    2911 OW          20.7367     2.8111    28.5430 opls-116      1 RES       -0.847600
    2912 HW1         19.8152     2.4451    28.4127 opls-117      1 RES        0.423800
    2913 HW2         21.3660     2.0627    28.7527 opls-117      1 RES        0.423800
    2914 OW          17.0265    30.0680     6.3189 opls-116      1 RES       -0.847600
    2915 HW1         16.3225    30.0701     5.6086 opls-117      1 RES        0.423800
    2916 HW2         17.9307    30.0829     5.8920 opls-117      1 RES        0.423800
    2917 OW          27.9277    22.8556    29.8242 opls-116      1 RES       -0.847600
    2918 HW1         28.9183    22.8306    29.6900 opls-117      1 RES        0.423800
    2919 HW2         27.6478    23.7838    30.0693 opls-117      1 RES        0.423800
    2920 OW          14.7964     3.5411     2.3429 opls-116      1 RES       -0.847600
    2921 HW1         13.8366     3.2702     2.4170 opls-117      1 RES        0.423800
    2922 HW2         14.8525     4.4790     2.0004 opls-117      1 RES        0.423800
    2923 OW          29.1643    19.3190    24.0681 opls-116      1 RES       -0.847600
    2924 HW1         29.9180    18.6625    24.0358 opls-117      1 RES        0.423800
    2925 HW2         29.5300    20.2400    24.2018 opls-117      1 RES        0.423800
    2926 OW           5.2610    18.5235     2.5640 opls-116      1 RES       -0.847600
    2927 HW1          4.4615    18.7294     1.9998 opls-117      1 RES        0.423800
    2928 HW2          6.0853    18.5566     1.9988 opls-117      1 RES        0.423800
    2929 OW          17.5851     5.6620    13.9152 opls-116      1 RES       -0.847600
    2930 HW1         17.2691     4.7985    14.3083 opls-117      1 RES        0.423800
    2931 HW2         16.8909     6.0169    13.2890 opls-117      1 RES        0.423800
    2932 OW          29.5402    16.8192     4.8501 opls-116      1 RES       -0.847600
    2933 HW1         30.0704    17.3539     5.5080 opls-117      1 RES        0.423800
    2934 HW2         30.0475    16.7496     3.9912 opls-117      1 RES        0.423800
    2935 OW           9.8548    18.6578     6.0848 opls-116      1 RES       -0.847600
    2936 HW1         10.0184    17.8450     6.6439 opls-117      1 RES        0.423800
    2937 HW2         10.5969    19.3134     6.2244 opls-117      1 RES        0.423800
    2938 OW          26.7258    23.5503     6.4030 opls-116      1 RES       -0.847600
    2939 HW1         26.8723    24.4842     6.7292 opls-117      1 RES        0.423800
    2940 HW2         26.3770    22.9867     7.1518 opls-117      1 RES        0.423800
    2941 OW           6.7027    20.4646    20.8715 opls-116      1 RES       -0.847600
    2942 HW1          6.7013    21.1960    21.5533 opls-117      1 RES        0.423800
    2943 HW2          7.6454    20.2008    20.6675 opls-117      1 RES        0.423800
    2944 OW           1.9491    17.1795    14.5984 opls-116      1 RES       -0.847600
    2945 HW1          2.1343    16.7492    13.7149 opls-117      1 RES        0.423800
    2946 HW2          2.3376    16.6191    15.3299 opls-117      1 RES        0.423800
    2947 OW          14.6951    30.0179    13.4342 opls-116      1 RES       -0.847600
    2948 HW1         15.0754    29.1103    13.2562 opls-117      1 RES        0.423800
    2949 HW2         14.3925    30.0718    14.3858 opls-117      1 RES        0.423800
    2950 OW          13.7568     2.4215    14.8461 opls-116      1 RES       -0.847600
    2951 HW1         13.6299     2.1177    13.9018 opls-117      1 RES        0.423800
    2952 HW2         14.1455     3.3429    14.8503 opls-117      1 RES        0.423800
    2953 OW          24.6511    19.4442     5.0747 opls-116      1 RES       -0.847600
    2954 HW1         24.1578    20.0888     5.6588 opls-117      1 RES        0.423800
    2955 HW2         25.0048    19.9248     4.2723 opls-117      1 RES        0.423800
    2956 OW          14.9168    29.1210    25.2428 opls-116      1 RES       -0.847600
    2957 HW1         15.1956    30.0725    25.1133 opls-117      1 RES        0.423800
    2958 HW2         15.6792    28.5994    25.6258 opls-117      1 RES        0.423800
    2959 OW          22.3478     7.7496     4.0683 opls-116      1 RES       -0.847600
    2960 HW1         21.4617     7.2898     4.1262 opls-117      1 RES        0.423800
    2961 HW2         22.3973     8.4665     4.7637 opls-117      1 RES        0.423800
    2962 OW          19.0445    25.1731    11.2226 opls-116      1 RES       -0.847600
    2963 HW1         19.6268    25.2880    10.4177 opls-117      1 RES        0.423800
    2964 HW2         18.1768    24.7579    10.9496 opls-117      1 RES        0.423800
    2965 OW          29.4715     7.0485     7.4199 opls-116      1 RES       -0.847600
    2966 HW1         30.0700     7.4965     6.7558 opls-117      1 RES        0.423800
    2967 HW2         29.5411     6.0564     7.3152 opls-117      1 RES        0.423800
    2968 OW          16.1294    18.8113    23.3491 opls-116      1 RES       -0.847600
    2969 HW1         15.1675    18.5647    23.4678 opls-117      1 RES        0.423800
    2970 HW2         16.2335    19.8015    23.4417 opls-117      1 RES        0.423800
    2971 OW          18.1030    15.1904    19.3539 opls-116      1 RES       -0.847600
    2972 HW1         18.4277    14.6479    20.1287 opls-117      1 RES        0.423800
    2973 HW2         17.9114    14.5858    18.5808 opls-117      1 RES        0.423800
    2974 OW           6.7358     7.7656    24.6712 opls-116      1 RES       -0.847600
    2975 HW1          6.7123     8.4714    23.9632 opls-117      1 RES        0.423800
    2976 HW2          7.4576     7.9782    25.3299 opls-117      1 RES        0.423800
    2977 OW          24.4891    29.0429    14.2211 opls-116      1 RES       -0.847600
    2978 HW1         24.3231    28.2215    13.6754 opls-117      1 RES        0.423800
    2979 HW2         24.3545    28.8326    15.1894 opls-117      1 RES        0.423800
    2980 OW           5.5104    16.2160    28.4550 opls-116      1 RES       -0.847600
    2981 HW1          5.3352    16.5031    29.3967 opls-117      1 RES        0.423800
    2982 HW2          5.0979    15.3187    28.2979 opls-117      1 RES        0.423800
    2983 OW          19.6339    13.2269    18.7424 opls-116      1 RES       -0.847600
    2984 HW1         20.0191    12.3053    18.6955 opls-117      1 RES        0.423800
    2985 HW2         20.1573    13.8376    18.1482 opls-117      1 RES        0.423800
    2986 OW          10.3269    19.1597    20.5102 opls-116      1 RES       -0.847600
    2987 HW1          9.5205    19.3136    19.9392 opls-117      1 RES        0.423800
    2988 HW2         10.3297    18.2139    20.8351 opls-117      1 RES        0.423800
    2989 OW          22.5033    17.2944    25.9931 opls-116      1 RES       -0.847600
    2990 HW1         23.2729    17.0507    25.4029 opls-117      1 RES        0.423800
    2991 HW2         21.6868    17.4379    25.4339 opls-117      1 RES        0.423800
    2992 OW          14.7112    20.1610     7.3549 opls-116      1 RES       -0.847600
    2993 HW1         14.6685    19.2455     6.9550 opls-117      1 RES        0.423800
    2994 HW2         14.4530    20.8381     6.6659 opls-117      1 RES        0.423800
    2995 OW           2.5723     7.7465    11.9105 opls-116      1 RES       -0.847600
    2996 HW1          1.9993     8.5648    11.9552 opls-117      1 RES        0.423800
    2997 HW2          2.0009     6.9498    11.7133 opls-117      1 RES        0.423800
    2998 OW          22.7424    30.0706    23.8776 opls-116      1 RES       -0.847600
    2999 HW1         23.3218    29.3832    24.3153 opls-117      1 RES        0.423800
    3000 HW2         21.8195    30.0207    24.2594 opls-117      1 RES        0.423800
    3001 OW          28.7670     5.1395    23.9857 opls-116      1 RES       -0.847600
    3002 HW1         29.4013     5.0876    23.2144 opls-117      1 RES        0.423800
    3003 HW2         27.8999     5.5314    23.6784 opls-117      1 RES        0.423800
    3004 OW           7.4503    29.0855    13.0748 opls-116      1 RES       -0.847600
    3005 HW1          7.5929    30.0752    13.0677 opls-117      1 RES        0.423800
    3006 HW2          6.7053    28.8606    13.7028 opls-117      1 RES        0.423800
    3007 OW          26.9674    26.2632    23.5804 opls-116      1 RES       -0.847600
    3008 HW1         26.0277    26.5819    23.4565 opls-117      1 RES        0.423800
    3009 HW2         26.9915    25.5673    24.2982 opls-117      1 RES        0.423800
    3010 OW          12.0530     8.5906    27.6539 opls-116      1 RES       -0.847600
    3011 HW1         11.7606     7.6343    27.6593 opls-117      1 RES        0.423800
    3012 HW2         11.2489     9.1850    27.6616 opls-117      1 RES        0.423800
    3013 OW          14.4061    29.5989    21.3819 opls-116      1 RES       -0.847600
    3014 HW1         15.2536    29.5307    20.8556 opls-117      1 RES        0.423800
    3015 HW2         13.7131    30.0721    20.8380 opls-117      1 RES        0.423800
    3016 OW          22.7011    27.2085    18.0890 opls-116      1 RES       -0.847600
    3017 HW1         22.1523    28.0247    18.2701 opls-117      1 RES        0.423800
    3018 HW2         23.5366    27.2402    18.6376 opls-117      1 RES        0.423800
    3019 OW          23.5102     9.1315    25.5807 opls-116      1 RES       -0.847600
    3020 HW1         22.5376     9.2501    25.7804 opls-117      1 RES        0.423800
    3021 HW2         23.7892     9.7886    24.8804 opls-117      1 RES        0.423800
    3022 OW          12.1383     5.5030    10.5961 opls-116      1 RES       -0.847600
    3023 HW1         13.0383     5.9388    10.6098 opls-117      1 RES        0.423800
    3024 HW2         11.7618     5.4866    11.5223 opls-117      1 RES        0.423800
    3025 OW          17.3616    21.1658    20.9661 opls-116      1 RES       -0.847600
    3026 HW1         17.1369    21.9928    20.4507 opls-117      1 RES        0.423800
    3027 HW2         16.8556    21.1629    21.8287 opls-117      1 RES        0.423800
    3028 OW          16.8908     8.8268    26.7654 opls-116      1 RES       -0.847600
    3029 HW1         17.4901     9.6218    26.6709 opls-117      1 RES        0.423800
    3030 HW2         15.9389     9.1302    26.8076 opls-117      1 RES        0.423800
    3031 OW          18.4827    25.5668    24.7364 opls-116      1 RES       -0.847600
    3032 HW1         19.2739    25.8761    24.2087 opls-117      1 RES        0.423800
    3033 HW2         18.5770    24.5918    24.9378 opls-117      1 RES        0.423800
    3034 OW           7.8190    25.0977     7.0424 opls-116      1 RES       -0.847600
    3035 HW1          8.3426    25.9489     7.0787 opls-117      1 RES        0.423800
    3036 HW2          6.8414    25.3080     7.0304 opls-117      1 RES        0.423800
    3037 OW          24.7711    21.3840     7.5827 opls-116      1 RES       -0.847600
    3038 HW1         24.4195    22.2756     7.8682 opls-117      1 RES        0.423800
    3039 HW2         24.6738    20.7312     8.3339 opls-117      1 RES        0.423800
    3040 OW          21.4936    11.8288    11.7515 opls-116      1 RES       -0.847600
    3041 HW1         22.4430    11.6454    12.0065 opls-117      1 RES        0.423800
    3042 HW2         21.2678    11.3211    10.9200 opls-117      1 RES        0.423800
    3043 OW          22.4985    29.1620     5.3056 opls-116      1 RES       -0.847600
    3044 HW1         22.1017    30.0793     5.2722 opls-117      1 RES        0.423800
    3045 HW2         21.7654    28.4819     5.3134 opls-117      1 RES        0.423800
    3046 OW          24.2493     7.8248    19.6454 opls-116      1 RES       -0.847600
    3047 HW1         24.2771     8.5545    20.3286 opls-117      1 RES        0.423800
    3048 HW2         23.6200     8.0795    18.9111 opls-117      1 RES        0.423800
    3049 OW          25.4316    14.5703    19.4252 opls-116      1 RES       -0.847600
    3050 HW1         25.3114    15.5629    19.4084 opls-117      1 RES        0.423800
    3051 HW2         24.5362    14.1257    19.3997 opls-117      1 RES        0.423800
    3052 OW           6.9016    26.6191    12.7527 opls-116      1 RES       -0.847600
    3053 HW1          6.2438    27.2183    12.2964 opls-117      1 RES        0.423800
    3054 HW2          6.7625    26.6635    13.7420 opls-117      1 RES        0.423800
    3055 OW          21.9350    12.2367    30.0097 opls-116      1 RES       -0.847600
    3056 HW1         20.9413    12.1444    30.0724 opls-117      1 RES        0.423800
    3057 HW2         22.1703    13.1913    29.8274 opls-117      1 RES        0.423800
    3058 OW          27.0483     8.3214    20.7956 opls-116      1 RES       -0.847600
    3059 HW1         27.9770     8.1959    20.4467 opls-117      1 RES        0.423800
    3060 HW2         26.3908     7.9823    20.1227 opls-117      1 RES        0.423800
    3061 OW          10.0957    23.6332     3.0605 opls-116      1 RES       -0.847600
    3062 HW1         10.1948    24.6064     3.2681 opls-117      1 RES        0.423800
    3063 HW2         10.9785    23.1770     3.1723 opls-117      1 RES        0.423800
    3064 OW          20.7384     9.2184    14.7806 opls-116      1 RES       -0.847600
    3065 HW1         20.9270     9.3032    15.7590 opls-117      1 RES        0.423800
    3066 HW2         19.7645     9.0375    14.6434 opls-117      1 RES        0.423800
    3067 OW           6.5465    17.2077    26.5932 opls-116      1 RES       -0.847600
    3068 HW1          6.6187    17.7954    27.3990 opls-117      1 RES        0.423800
    3069 HW2          5.8898    17.6023    25.9506 opls-117      1 RES        0.423800
    3070 OW          10.4867     4.8093    18.6635 opls-116      1 RES       -0.847600
    3071 HW1          9.7894     4.5978    17.9786 opls-117      1 RES        0.423800
    3072 HW2         10.0724     4.8046    19.5736 opls-117      1 RES        0.423800
    3073 OW           4.5147     8.1042    23.2045 opls-116      1 RES       -0.847600
    3074 HW1          5.1068     7.3287    22.9853 opls-117      1 RES        0.423800
    3075 HW2          3.7452     7.7894    23.7602 opls-117      1 RES        0.423800
    3076 OW          24.4842     2.5656    24.6218 opls-116      1 RES       -0.847600
    3077 HW1         25.3538     2.0958    24.7740 opls-117      1 RES        0.423800
    3078 HW2         23.7370     2.0102    24.9867 opls-117      1 RES        0.423800
    3079 OW          29.9361    16.6434    26.4461 opls-116      1 RES       -0.847600
    3080 HW1         28.9864    16.5650    26.7494 opls-117      1 RES        0.423800
    3081 HW2         30.0651    16.1064    25.6124 opls-117      1 RES        0.423800
    3082 OW          20.9288    23.5494    27.7427 opls-116      1 RES       -0.847600
    3083 HW1         21.2729    23.1824    26.8785 opls-117      1 RES        0.423800
    3084 HW2         20.1951    24.2034    27.5585 opls-117      1 RES        0.423800
    3085 OW          21.3065    20.7749    29.3812 opls-116      1 RES       -0.847600
    3086 HW1         21.3843    21.2590    28.5097 opls-117      1 RES        0.423800
    3087 HW2         22.2066    20.7199    29.8135 opls-117      1 RES        0.423800
    3088 OW           4.7254    18.4151     9.5350 opls-116      1 RES       -0.847600
    3089 HW1          4.0883    19.0882     9.1595 opls-117      1 RES        0.423800
    3090 HW2          5.5086    18.8871     9.9398 opls-117      1 RES        0.423800
    3091 OW          13.9934    10.3943    28.9545 opls-116      1 RES       -0.847600
    3092 HW1         14.7874    10.9925    28.8466 opls-117      1 RES        0.423800
    3093 HW2         13.8402     9.8875    28.1061 opls-117      1 RES        0.423800
    3094 OW          27.9896    26.9727     7.0215 opls-116      1 RES       -0.847600
    3095 HW1         27.5935    27.6754     6.4306 opls-117      1 RES        0.423800
    3096 HW2         28.9498    27.1886     7.1986 opls-117      1 RES        0.423800
    3097 OW          19.4473    28.2320    24.4307 opls-116      1 RES       -0.847600
    3098 HW1         18.5891    27.8801    24.8046 opls-117      1 RES        0.423800
    3099 HW2         19.2856    29.1232    24.0070 opls-117      1 RES        0.423800
    3100 OW          18.2854     4.1813    17.1356 opls-116      1 RES       -0.847600
    3101 HW1         17.5891     4.3225    16.4318 opls-117      1 RES        0.423800
    3102 HW2         17.8827     3.6929    17.9097 opls-117      1 RES        0.423800
    3103 OW           2.1564    10.0652    24.1558 opls-116      1 RES       -0.847600
    3104 HW1          3.1352    10.2388    24.2641 opls-117      1 RES        0.423800
    3105 HW2          1.9967     9.0794    24.1024 opls-117      1 RES        0.423800
    3106 OW           3.2365     7.4272    17.8909 opls-116      1 RES       -0.847600
    3107 HW1          4.2246     7.5809    17.8844 opls-117      1 RES        0.423800
    3108 HW2          2.8446     7.8139    18.7257 opls-117      1 RES        0.423800
    3109 OW           9.0904    17.9245    11.4072 opls-116      1 RES       -0.847600
    3110 HW1          9.5299    17.7040    12.2780 opls-117      1 RES        0.423800
    3111 HW2          8.1079    18.0437    11.5505 opls-117      1 RES        0.423800
    3112 OW          28.9466    16.9626    22.2348 opls-116      1 RES       -0.847600
    3113 HW1         29.8575    17.3748    22.2531 opls-117      1 RES        0.423800
    3114 HW2         29.0319    15.9669    22.1998 opls-117      1 RES        0.423800
    3115 OW          13.4939     8.2148    16.7349 opls-116      1 RES       -0.847600
    3116 HW1         12.5623     8.1250    16.3825 opls-117      1 RES        0.423800
    3117 HW2         13.7608     9.1785    16.7297 opls-117      1 RES        0.423800
    3118 OW          24.9819    25.5380    19.5542 opls-116      1 RES       -0.847600
    3119 HW1         25.6258    24.8307    19.8460 opls-117      1 RES        0.423800
    3120 HW2         25.4228    26.1335    18.8827 opls-117      1 RES        0.423800
    3121 OW          25.1166     2.8827     4.5120 opls-116      1 RES       -0.847600
    3122 HW1         25.7831     3.6178     4.6363 opls-117      1 RES        0.423800
    3123 HW2         25.5836     1.9993     4.5513 opls-117      1 RES        0.423800
    3124 OW           6.2368     5.0805     8.5090 opls-116      1 RES       -0.847600
    3125 HW1          6.7865     4.2621     8.3415 opls-117      1 RES        0.423800
    3126 HW2          5.4838     4.8554     9.1273 opls-117      1 RES        0.423800
    3127 OW          10.8305    27.1277    21.7182 opls-116      1 RES       -0.847600
    3128 HW1         11.4675    27.7013    21.2033 opls-117      1 RES        0.423800
    3129 HW2         10.5384    27.6115    22.5432 opls-117      1 RES        0.423800
    3130 OW          28.8722    26.0958    30.0540 opls-116      1 RES       -0.847600
    3131 HW1         29.3267    25.2052    30.0710 opls-117      1 RES        0.423800
    3132 HW2         27.9198    25.9785    29.7725 opls-117      1 RES        0.423800
    3133 OW          25.0184    17.7420    19.4815 opls-116      1 RES       -0.847600
    3134 HW1         25.0959    18.4470    20.1864 opls-117      1 RES        0.423800
    3135 HW2         25.8940    17.6461    19.0081 opls-117      1 RES        0.423800
    3136 OW          19.1682     6.3800    10.1506 opls-116      1 RES       -0.847600
    3137 HW1         18.4251     5.7133    10.0942 opls-117      1 RES        0.423800
    3138 HW2         20.0419     5.9194     9.9939 opls-117      1 RES        0.423800
    3139 OW          24.6401    28.3265    27.0579 opls-116      1 RES       -0.847600
    3140 HW1         24.5374    29.1611    27.5991 opls-117      1 RES        0.423800
    3141 HW2         23.9040    27.6890    27.2853 opls-117      1 RES        0.423800
    3142 OW          14.4457    23.1222     5.3637 opls-116      1 RES       -0.847600
    3143 HW1         14.8673    22.2705     5.0525 opls-117      1 RES        0.423800
    3144 HW2         15.1572    23.8047     5.5312 opls-117      1 RES        0.423800
    3145 OW          15.1531    20.5436    20.5807 opls-116      1 RES       -0.847600
    3146 HW1         15.1337    21.2735    19.8975 opls-117      1 RES        0.423800
    3147 HW2         15.6746    19.7680    20.2252 opls-117      1 RES        0.423800
    3148 OW           3.4810    23.8766    27.4567 opls-116      1 RES       -0.847600
    3149 HW1          3.7971    24.8063    27.6457 opls-117      1 RES        0.423800
    3150 HW2          3.3317    23.3934    28.3193 opls-117      1 RES        0.423800
    3151 OW          17.5417     8.6887     6.7153 opls-116      1 RES       -0.847600
    3152 HW1         18.2370     7.9794     6.5994 opls-117      1 RES        0.423800
    3153 HW2         17.0655     8.5499     7.5837 opls-117      1 RES        0.423800
    3154 OW           5.7745     4.6905    28.5005 opls-116      1 RES       -0.847600
    3155 HW1          6.7518     4.6751    28.7120 opls-117      1 RES        0.423800
    3156 HW2          5.2636     4.2797    29.2556 opls-117      1 RES        0.423800
    3157 OW          14.5030    25.0364     2.8070 opls-116      1 RES       -0.847600
    3158 HW1         14.7012    24.2904     3.4427 opls-117      1 RES        0.423800
    3159 HW2         13.7410    25.5803     3.1584 opls-117      1 RES        0.423800
    3160 OW          11.5888    24.9037     7.5890 opls-116      1 RES       -0.847600
    3161 HW1         10.7675    25.2515     8.0412 opls-117      1 RES        0.423800
    3162 HW2         11.4964    23.9189     7.4417 opls-117      1 RES        0.423800
    3163 OW          18.1471     8.0281    11.7573 opls-116      1 RES       -0.847600
    3164 HW1         17.6885     8.7511    11.2406 opls-117      1 RES        0.423800
    3165 HW2         17.6913     7.1549    11.5850 opls-117      1 RES        0.423800
    3166 OW          24.3949    17.8033    10.2039 opls-116      1 RES       -0.847600
    3167 HW1         24.4271    18.7195     9.8046 opls-117      1 RES        0.423800
    3168 HW2         23.4663    17.4397    10.1297 opls-117      1 RES        0.423800
    3169 OW           3.9659    18.7846    19.0622 opls-116      1 RES       -0.847600
    3170 HW1          3.5263    18.8248    18.1649 opls-117      1 RES        0.423800
    3171 HW2          4.6880    18.0929    19.0489 opls-117      1 RES        0.423800
    3172 OW           2.2540    21.5049    27.9860 opls-116      1 RES       -0.847600
    3173 HW1          1.9990    20.5430    27.8883 opls-117      1 RES        0.423800
    3174 HW2          2.0181    21.9989    27.1491 opls-117      1 RES        0.423800
    3175 OW          13.6099     2.0042    22.2460 opls-116      1 RES       -0.847600
    3176 HW1         12.6267     2.0000    22.4282 opls-117      1 RES        0.423800
    3177 HW2         13.8963     2.9257    21.9833 opls-117      1 RES        0.423800
    3178 OW           4.3756     9.9458    11.8840 opls-116      1 RES       -0.847600
    3179 HW1          3.4242    10.2404    11.9733 opls-117      1 RES        0.423800
    3180 HW2          4.4154     8.9467    11.8705 opls-117      1 RES        0.423800
    3181 OW          13.0709     8.9923     9.3263 opls-116      1 RES       -0.847600
    3182 HW1         13.6509     8.5158     9.9869 opls-117      1 RES        0.423800
    3183 HW2         13.6427     9.4053     8.6175 opls-117      1 RES        0.423800
    3184 OW          17.7742     2.5113     7.4609 opls-116      1 RES       -0.847600
    3185 HW1         18.1356     2.4020     8.3868 opls-117      1 RES        0.423800
    3186 HW2         18.3445     1.9999     6.8180 opls-117      1 RES        0.423800
    3187 OW          27.5559    20.8892    15.7576 opls-116      1 RES       -0.847600
    3188 HW1         27.2490    20.5876    16.6604 opls-117      1 RES        0.423800
    3189 HW2         26.7635    21.1498    15.2061 opls-117      1 RES        0.423800
    3190 OW           7.9192    26.9130    22.3370 opls-116      1 RES       -0.847600
    3191 HW1          8.6423    26.9161    21.6462 opls-117      1 RES        0.423800
    3192 HW2          8.2321    27.4053    23.1492 opls-117      1 RES        0.423800
    3193 OW          22.8964    18.4140    17.0821 opls-116      1 RES       -0.847600
    3194 HW1         22.6491    19.0832    17.7828 opls-117      1 RES        0.423800
    3195 HW2         23.7963    18.0307    17.2901 opls-117      1 RES        0.423800
    3196 OW          13.7972     6.3517    12.6323 opls-116      1 RES       -0.847600
    3197 HW1         14.7004     6.3730    12.2037 opls-117      1 RES        0.423800
    3198 HW2         13.5381     5.4037    12.8170 opls-117      1 RES        0.423800
    3199 OW           9.6693    18.2043     2.5037 opls-116      1 RES       -0.847600
    3200 HW1         10.1748    18.9038     1.9986 opls-117      1 RES        0.423800
    3201 HW2          8.9982    18.6438     3.1007 opls-117      1 RES        0.423800
    3202 OW          10.6606    18.6750    24.0938 opls-116      1 RES       -0.847600
    3203 HW1         10.4278    19.6214    24.3174 opls-117      1 RES        0.423800
    3204 HW2          9.8290    18.1757    23.8508 opls-117      1 RES        0.423800
    3205 OW          24.2121     6.3364     5.3403 opls-116      1 RES       -0.847600
    3206 HW1         23.3955     6.7613     5.7309 opls-117      1 RES        0.423800
    3207 HW2         24.3808     5.4606     5.7925 opls-117      1 RES        0.423800
    3208 OW          15.3205     8.0098    22.4643 opls-116      1 RES       -0.847600
    3209 HW1         15.8540     8.4599    21.7482 opls-117      1 RES        0.423800
    3210 HW2         15.2207     8.6280    23.2440 opls-117      1 RES        0.423800
    3211 OW          12.1836    25.0725    17.4364 opls-116      1 RES       -0.847600
    3212 HW1         13.0172    25.4524    17.0354 opls-117      1 RES        0.423800
    3213 HW2         12.0811    24.1194    17.1518 opls-117      1 RES        0.423800
    3214 OW          17.7931    20.4529    29.3305 opls-116      1 RES       -0.847600
    3215 HW1         17.1247    20.3324    30.0645 opls-117      1 RES        0.423800
    3216 HW2         18.6082    20.9049    29.6929 opls-117      1 RES        0.423800
    3217 OW          14.6289     6.1472    24.9788 opls-116      1 RES       -0.847600
    3218 HW1         13.9772     5.6052    24.4481 opls-117      1 RES        0.423800
    3219 HW2         15.3175     5.5424    25.3789 opls-117      1 RES        0.423800
    3220 OW          17.2651    22.5770     3.4222 opls-116      1 RES       -0.847600
    3221 HW1         16.3274    22.2296     3.4134 opls-117      1 RES        0.423800
    3222 HW2         17.8760    21.8982     3.0148 opls-117      1 RES        0.423800
    3223 OW          29.9902    14.1419    10.5006 opls-116      1 RES       -0.847600
    3224 HW1         29.2521    14.7983    10.3442 opls-117      1 RES        0.423800
    3225 HW2         30.0763    13.5415     9.7056 opls-117      1 RES        0.423800
    3226 OW          17.8063    26.1234    12.7728 opls-116      1 RES       -0.847600
    3227 HW1         17.8934    27.0809    13.0479 opls-117      1 RES        0.423800
    3228 HW2         17.4034    25.5969    13.5214 opls-117      1 RES        0.423800
    3229 OW          23.1061    21.0246    15.7154 opls-116      1 RES       -0.847600
    3230 HW1         24.0473    20.8554    16.0080 opls-117      1 RES        0.423800
    3231 HW2         22.6193    20.1544    15.6393 opls-117      1 RES        0.423800
    3232 OW          19.9801    14.3675     3.0144 opls-116      1 RES       -0.847600
    3233 HW1         20.2824    13.9426     2.1611 opls-117      1 RES        0.423800
    3234 HW2         20.6042    14.1125     3.7531 opls-117      1 RES        0.423800
    3235 OW          16.8819    24.7193     6.5445 opls-116      1 RES       -0.847600
    3236 HW1         17.7146    25.2627     6.4381 opls-117      1 RES        0.423800
    3237 HW2         17.1137    23.7468     6.5244 opls-117      1 RES        0.423800
    3238 OW           6.6339    12.3490    23.2874 opls-116      1 RES       -0.847600
    3239 HW1          7.5171    12.1026    22.8886 opls-117      1 RES        0.423800
    3240 HW2          5.9103    12.1983    22.6138 opls-117      1 RES        0.423800
    3241 OW          29.6076    23.6665    12.4312 opls-116      1 RES       -0.847600
    3242 HW1         30.0772    24.1606    13.1629 opls-117      1 RES        0.423800
    3243 HW2         30.0057    22.7541    12.3364 opls-117      1 RES        0.423800
    3244 OW          17.4416    24.3945    22.2226 opls-116      1 RES       -0.847600
    3245 HW1         17.1515    25.1268    21.6065 opls-117      1 RES        0.423800
    3246 HW2         18.3023    24.6507    22.6627 opls-117      1 RES        0.423800
    3247 OW           3.6670    12.8257    28.3664 opls-116      1 RES       -0.847600
    3248 HW1          4.5757    12.7943    28.7826 opls-117      1 RES        0.423800
    3249 HW2          3.5744    13.6652    27.8311 opls-117      1 RES        0.423800
    3250 OW          20.8609    22.3724    19.2513 opls-116      1 RES       -0.847600
    3251 HW1         20.7773    23.2731    18.8251 opls-117      1 RES        0.423800
    3252 HW2         21.1209    22.4805    20.2108 opls-117      1 RES        0.423800
    3253 OW           6.7115     8.9920    12.2340 opls-116      1 RES       -0.847600
    3254 HW1          7.4429     8.4164    11.8684 opls-117      1 RES        0.423800
    3255 HW2          6.2599     8.5174    12.9895 opls-117      1 RES        0.423800
    3256 OW          10.4969    13.0441    23.2406 opls-116      1 RES       -0.847600
    3257 HW1          9.6696    12.5479    22.9771 opls-117      1 RES        0.423800
    3258 HW2         10.3378    14.0275    23.1536 opls-117      1 RES        0.423800
    3259 OW           9.7401     2.0281    21.0880 opls-116      1 RES       -0.847600
    3260 HW1         10.7003     1.9986    21.3655 opls-117      1 RES        0.423800
    3261 HW2          9.3159     2.8611    21.4432 opls-117      1 RES        0.423800
    3262 OW           2.0899     3.9304     4.2808 opls-116      1 RES       -0.847600
    3263 HW1          2.7283     3.1669     4.1834 opls-117      1 RES        0.423800
    3264 HW2          2.0000     4.1685     5.2478 opls-117      1 RES        0.423800
    3265 OW          21.3687    11.0665    17.4776 opls-116      1 RES       -0.847600
    3266 HW1         21.1525    11.8312    16.8706 opls-117      1 RES        0.423800
    3267 HW2         20.5627    10.4835    17.5794 opls-117      1 RES        0.423800
    3268 OW          27.0711     2.4382    15.4017 opls-116      1 RES       -0.847600
    3269 HW1         27.2305     3.4224    15.3249 opls-117      1 RES        0.423800
    3270 HW2         27.9018     1.9909    15.7330 opls-117      1 RES        0.423800
    3271 OW           5.4363    27.3678     7.9036 opls-116      1 RES       -0.847600
    3272 HW1          6.0642    28.0332     7.4999 opls-117      1 RES        0.423800
    3273 HW2          5.1546    26.7092     7.2059 opls-117      1 RES        0.423800
    3274 OW          11.9987    14.9821    27.5189 opls-116      1 RES       -0.847600
    3275 HW1         12.3132    14.4213    26.7530 opls-117      1 RES        0.423800
    3276 HW2         12.1340    14.4833    28.3749 opls-117      1 RES        0.423800
    3277 OW          25.9844     3.9619     7.4439 opls-116      1 RES       -0.847600
    3278 HW1         25.0418     3.8449     7.1312 opls-117      1 RES        0.423800
    3279 HW2         26.5571     3.2415     7.0529 opls-117      1 RES        0.423800
    3280 OW          22.5180    12.9706    10.1749 opls-116      1 RES       -0.847600
    3281 HW1         23.4601    12.6912    10.3608 opls-117      1 RES        0.423800
    3282 HW2         22.4683    13.9685    10.1336 opls-117      1 RES        0.423800
    3283 OW          26.4381    28.1380    15.0730 opls-116      1 RES       -0.847600
    3284 HW1         26.3292    27.3567    14.4585 opls-117      1 RES        0.423800
    3285 HW2         27.4115    28.3287    15.2004 opls-117      1 RES        0.423800
    3286 OW           7.2047     2.6195    29.3852 opls-116      1 RES       -0.847600
    3287 HW1          6.4992     2.4369    30.0700 opls-117      1 RES        0.423800
    3288 HW2          7.9332     3.1682    29.7954 opls-117      1 RES        0.423800
    3289 OW           9.3394    13.1108    30.0704 opls-116      1 RES       -0.847600
    3290 HW1          9.5574    12.1348    30.0679 opls-117      1 RES        0.423800
    3291 HW2         10.1589    13.6359    29.8409 opls-117      1 RES        0.423800
    3292 OW           2.3898    16.7757    28.2284 opls-116      1 RES       -0.847600
    3293 HW1          3.3834    16.6901    28.1558 opls-117      1 RES        0.423800
    3294 HW2          1.9662    15.8830    28.0747 opls-117      1 RES        0.423800
    3295 OW           2.2895    27.3205    17.7529 opls-116      1 RES       -0.847600
    3296 HW1          1.9931    27.7143    18.6230 opls-117      1 RES        0.423800
    3297 HW2          1.9987    27.9137    17.0022 opls-117      1 RES        0.423800
    3298 OW          28.6321    20.8028     2.9894 opls-116      1 RES       -0.847600
    3299 HW1         28.4986    21.5968     2.3964 opls-117      1 RES        0.423800
    3300 HW2         29.4221    20.2784     2.6715 opls-117      1 RES        0.423800
@<TRIPOS>BOND
       1        2        1 1
       2        3        1 1
       3        5        4 1
       4        6        4 1
       5        8        7 1
       6        9        7 1
       7       11       10 1
       8       12       10 1
       9       14       13 1
      10       15       13 1
      11       17       16 1
      12       18       16 1
      13       20       19 1
      14       21       19 1
      15       23       22 1
      16       24       22 1
      17       26       25 1
      18       27       25 1
      19       29       28 1
      20       30       28 1
      21       32       31 1
      22       33       31 1
      23       35       34 1
      24       36       34 1
      25       38       37 1
      26       39       37 1
      27       41       40 1
      28       42       40 1
      29       44       43 1
      30       45       43 1
      31       47       46 1
      32       48       46 1
      33       50       49 1
      34       51       49 1
      35       53       52 1
      36       54       52 1
      37       56       55 1
      38       57       55 1
      39       59       58 1
      40       60       58 1
      41       62       61 1
      42       63       61 1
      43       65       64 1
      44       66       64 1
      45       68       67 1
      46       69       67 1
      47       71       70 1
      48       72       70 1
      49       74       73 1
      50       75       73 1
      51       77       76 1
      52       78       76 1
      53       80       79 1
      54       81       79 1
      55       83       82 1
      56       84       82 1
      57       86       85 1
      58       87       85 1
      59       89       88 1
      60       90       88 1
      61       92       91 1
      62       93       91 1
      63       95       94 1
      64       96       94 1
      65       98       97 1
      66       99       97 1
      67      101      100 1
      68      102      100 1
      69      104      103 1
      70      105      103 1
      71      107      106 1
      72      108      106 1
      73      110      109 1
      74      111      109 1
      75      113      112 1
      76      114      112 1
      77      116      115 1
      78      117      115 1
      79      119      118 1
      80      120      118 1
      81      122      121 1
      82      123      121 1
      83      125      124 1
      84      126      124 1
      85      128      127 1
      86      129      127 1
      87      131      130 1
      88      132      130 1
      89      134      133 1
      90      135      133 1
      91      137      136 1
      92      138      136 1
      93      140      139 1
      94      141      139 1
      95      143      142 1
      96      144      142 1
      97      146      145 1
      98      147      145 1
      99      149      148 1
     100      150      148 1
     101      152      151 1
     102      153      151 1
     103      155      154 1
     104      156      154 1
     105      158      157 1
     106      159      157 1
     107      161      160 1
     108      162      160 1
     109      164      163 1
     110      165      163 1
     111      167      166 1
     112      168      166 1
     113      170      169 1
     114      171      169 1
     115      173      172 1
     116      174      172 1
     117      176      175 1
     118      177      175 1
     119      179      178 1
     120      180      178 1
     121      182      181 1
     122      183      181 1
     123      185      184 1
     124      186      184 1
     125      188      187 1
     126      189      187 1
     127      191      190 1
     128      192      190 1
     129      194      193 1
     130      195      193 1
     131      197      196 1
     132      198      196 1
     133      200      199 1
     134      201      199 1
     135      203      202 1
     136      204      202 1
     137      206      205 1
     138      207      205 1
     139      209      208 1
     140      210      208 1
     141      212      211 1
     142      213      211 1
     143      215      214 1
     144      216      214 1
     145      218      217 1
     146      219      217 1
     147      221      220 1
     148      222      220 1
     149      224      223 1
     150      225      223 1
     151      227      226 1
     152      228      226 1
     153      230      229 1
     154      231      229 1
     155      233      232 1
     156      234      232 1
     157      236      235 1
     158      237      235 1
     159      239      238 1
     160      240      238 1
     161      242      241 1
     162      243      241 1
     163      245      244 1
     164      246      244 1
     165      248      247 1
     166      249      247 1
     167      251      250 1
     168      252      250 1
     169      254      253 1
     170      255      253 1
     171      257      256 1
     172      258      256 1
     173      260      259 1
     174      261      259 1
     175      263      262 1
     176      264      262 1
     177      266      265 1
     178      267      265 1
     179      269      268 1
     180      270      268 1
     181      272      271 1
     182      273      271 1
     183      275      274 1
     184      276      274 1
     185      278      277 1
     186      279      277 1
     187      281      280 1
     188      282      280 1
     189      284      283 1
     190      285      283 1
     191      287      286 1
     192      288      286 1
     193      290      289 1
     194      291      289 1
     195      293      292 1
     196      294      292 1
     197      296      295 1
     198      297      295 1
     199      299      298 1
     200      300      298 1
     201      302      301 1
     202      303      301 1
     203      305      304 1
     204      306      304 1
     205      308      307 1
     206      309      307 1
     207      311      310 1
     208      312      310 1
     209      314      313 1
     210      315      313 1
     211      317      316 1
     212      318      316 1
     213      320      319 1
     214      321      319 1
     215      323      322 1
     216      324      322 1
     217      326      325 1
     218      327      325 1
     219      329      328 1
     220      330      328 1
     221      332      331 1
     222      333      331 1
     223      335      334 1
     224      336      334 1
     225      338      337 1
     226      339      337 1
     227      341      340 1
     228      342      340 1
     229      344      343 1
     230      345      343 1
     231      347      346 1
     232      348      346 1
     233      350      349 1
     234      351      349 1
     235      353      352 1
     236      354      352 1
     237      356      355 1
     238      357      355 1
     239      359      358 1
     240      360      358 1
     241      362      361 1
     242      363      361 1
     243      365      364 1
     244      366      364 1
     245      368      367 1
     246      369      367 1
     247      371      370 1
     248      372      370 1
     249      374      373 1
     250      375      373 1
     251      377      376 1
     252      378      376 1
     253      380      379 1
     254      381      379 1
     255      383      382 1
     256      384      382 1
     257      386      385 1
     258      387      385 1
     259      389      388 1
     260      390      388 1
     261      392      391 1
     262      393      391 1
     263      395      394 1
     264      396      394 1
     265      398      397 1
     266      399      397 1
     267      401      400 1
     268      402      400 1
     269      404      403 1
     270      405      403 1
     271      407      406 1
     272      408      406 1
     273      410      409 1
     274      411      409 1
     275      413      412 1
     276      414      412 1
     277      416      415 1
     278      417      415 1
     279      419      418 1
     280      420      418 1
     281      422      421 1
     282      423      421 1
     283      425      424 1
     284      426      424 1
     285      428      427 1
     286      429      427 1
     287      431      430 1
     288      432      430 1
     289      434      433 1
     290      435      433 1
     291      437      436 1
     292      438      436 1
     293      440      439 1
     294      441      439 1
     295      443      442 1
     296      444      442 1
     297      446      445 1
     298      447      445 1
     299      449      448 1
     300      450      448 1
     301      452      451 1
     302      453      451 1
     303      455      454 1
     304      456      454 1
     305      458      457 1
     306      459      457 1
     307      461      460 1
     308      462      460 1
     309      464      463 1
     310      465      463 1
     311      467      466 1
     312      468      466 1
     313      470      469 1
     314      471      469 1
     315      473      472 1
     316      474      472 1
     317      476      475 1
     318      477      475 1
     319      479      478 1
     320      480      478 1
     321      482      481 1
     322      483      481 1
     323      485      484 1
     324      486      484 1
     325      488      487 1
     326      489      487 1
     327      491      490 1
     328      492      490 1
     329      494      493 1
     330      495      493 1
     331      497      496 1
     332      498      496 1
     333      500      499 1
     334      501      499 1
     335      503      502 1
     336      504      502 1
     337      506      505 1
     338      507      505 1
     339      509      508 1
     340      510      508 1
     341      512      511 1
     342      513      511 1
     343      515      514 1
     344      516      514 1
     345      518      517 1
     346      519      517 1
     347      521      520 1
     348      522      520 1
     349      524      523 1
     350      525      523 1
     351      527      526 1
     352      528      526 1
     353      530      529 1
     354      531      529 1
     355      533      532 1
     356      534      532 1
     357      536      535 1
     358      537      535 1
     359      539      538 1
     360      540      538 1
     361      542      541 1
     362      543      541 1
     363      545      544 1
     364      546      544 1
     365      548      547 1
     366      549      547 1
     367      551      550 1
     368      552      550 1
     369      554      553 1
     370      555      553 1
     371      557      556 1
     372      558      556 1
     373      560      559 1
     374      561      559 1
     375      563      562 1
     376      564      562 1
     377      566      565 1
     378      567      565 1
     379      569      568 1
     380      570      568 1
     381      572      571 1
     382      573      571 1
     383      575      574 1
     384      576      574 1
     385      578      577 1
     386      579      577 1
     387      581      580 1
     388      582      580 1
     389      584      583 1
     390      585      583 1
     391      587      586 1
     392      588      586 1
     393      590      589 1
     394      591      589 1
     395      593      592 1
     396      594      592 1
     397      596      595 1
     398      597      595 1
     399      599      598 1
     400      600      598 1
     401      602      601 1
     402      603      601 1
     403      605      604 1
     404      606      604 1
     405      608      607 1
     406      609      607 1
     407      611      610 1
     408      612      610 1
     409      614      613 1
     410      615      613 1
     411      617      616 1
     412      618      616 1
     413      620      619 1
     414      621      619 1
     415      623      622 1
     416      624      622 1
     417      626      625 1
     418      627      625 1
     419      629      628 1
     420      630      628 1
     421      632      631 1
     422      633      631 1
     423      635      634 1
     424      636      634 1
     425      638      637 1
     426      639      637 1
     427      641      640 1
     428      642      640 1
     429      644      643 1
     430      645      643 1
     431      647      646 1
     432      648      646 1
     433      650      649 1
     434      651      649 1
     435      653      652 1
     436      654      652 1
     437      656      655 1
     438      657      655 1
     439      659      658 1
     440      660      658 1
     441      662      661 1
     442      663      661 1
     443      665      664 1
     444      666      664 1
     445      668      667 1
     446      669      667 1
     447      671      670 1
     448      672      670 1
     449      674      673 1
     450      675      673 1
     451      677      676 1
     452      678      676 1
     453      680      679 1
     454      681      679 1
     455      683      682 1
     456      684      682 1
     457      686      685 1
     458      687      685 1
     459      689      688 1
     460      690      688 1
     461      692      691 1
     462      693      691 1
     463      695      694 1
     464      696      694 1
     465      698      697 1
     466      699      697 1
     467      701      700 1
     468      702      700 1
     469      704      703 1
     470      705      703 1
     471      707      706 1
     472      708      706 1
     473      710      709 1
     474      711      709 1
     475      713      712 1
     476      714      712 1
     477      716      715 1
     478      717      715 1
     479      719      718 1
     480      720      718 1
     481      722      721 1
     482      723      721 1
     483      725      724 1
     484      726      724 1
     485      728      727 1
     486      729      727 1
     487      731      730 1
     488      732      730 1
     489      734      733 1
     490      735      733 1
     491      737      736 1
     492      738      736 1
     493      740      739 1
     494      741      739 1
     495      743      742 1
     496      744      742 1
     497      746      745 1
     498      747      745 1
     499      749      748 1
     500      750      748 1
     501      752      751 1
     502      753      751 1
     503      755      754 1
     504      756      754 1
     505      758      757 1
     506      759      757 1
     507      761      760 1
     508      762      760 1
     509      764      763 1
     510      765      763 1
     511      767      766 1
     512      768      766 1
     513      770      769 1
     514      771      769 1
     515      773      772 1
     516      774      772 1
     517      776      775 1
     518      777      775 1
     519      779      778 1
     520      780      778 1
     521      782      781 1
     522      783      781 1
     523      785      784 1
     524      786      784 1
     525      788      787 1
     526      789      787 1
     527      791      790 1
     528      792      790 1
     529      794      793 1
     530      795      793 1
     531      797      796 1
     532      798      796 1
     533      800      799 1
     534      801      799 1
     535      803      802 1
     536      804      802 1
     537      806      805 1
     538      807      805 1
     539      809      808 1
     540      810      808 1
     541      812      811 1
     542      813      811 1
     543      815      814 1
     544      816      814 1
     545      818      817 1
     546      819      817 1
     547      821      820 1
     548      822      820 1
     549      824      823 1
     550      825      823 1
     551      827      826 1
     552      828      826 1
     553      830      829 1
     554      831      829 1
     555      833      832 1
     556      834      832 1
     557      836      835 1
     558      837      835 1
     559      839      838 1
     560      840      838 1
     561      842      841 1
     562      843      841 1
     563      845      844 1
     564      846      844 1
     565      848      847 1
     566      849      847 1
     567      851      850 1
     568      852      850 1
     569      854      853 1
     570      855      853 1
     571      857      856 1
     572      858      856 1
     573      860      859 1
     574      861      859 1
     575      863      862 1
     576      864      862 1
     577      866      865 1
     578      867      865 1
     579      869      868 1
     580      870      868 1
     581      872      871 1
     582      873      871 1
     583      875      874 1
     584      876      874 1
     585      878      877 1
     586      879      877 1
     587      881      880 1
     588      882      880 1
     589      884      883 1
     590      885      883 1
     591      887      886 1
     592      888      886 1
     593      890      889 1
     594      891      889 1
     595      893      892 1
     596      894      892 1
     597      896      895 1
     598      897      895 1
     599      899      898 1
     600      900      898 1
     601      902      901 1
     602      903      901 1
     603      905      904 1
     604      906      904 1
     605      908      907 1
     606      909      907 1
     607      911      910 1
     608      912      910 1
     609      914      913 1
     610      915      913 1
     611      917      916 1
     612      918      916 1
     613      920      919 1
     614      921      919 1
     615      923      922 1
     616      924      922 1
     617      926      925 1
     618      927      925 1
     619      929      928 1
     620      930      928 1
     621      932      931 1
     622      933      931 1
     623      935      934 1
     624      936      934 1
     625      938      937 1
     626      939      937 1
     627      941      940 1
     628      942      940 1
     629      944      943 1
     630      945      943 1
     631      947      946 1
     632      948      946 1
     633      950      949 1
     634      951      949 1
     635      953      952 1
     636      954      952 1
     637      956      955 1
     638      957      955 1
     639      959      958 1
     640      960      958 1
     641      962      961 1
     642      963      961 1
     643      965      964 1
     644      966      964 1
     645      968      967 1
     646      969      967 1
     647      971      970 1
     648      972      970 1
     649      974      973 1
     650      975      973 1
     651      977      976 1
     652      978      976 1
     653      980      979 1
     654      981      979 1
     655      983      982 1
     656      984      982 1
     657      986      985 1
     658      987      985 1
     659      989      988 1
     660      990      988 1
     661      992      991 1
     662      993      991 1
     663      995      994 1
     664      996      994 1
     665      998      997 1
     666      999      997 1
     667     1001     1000 1
     668     1002     1000 1
     669     1004     1003 1
     670     1005     1003 1
     671     1007     1006 1
     672     1008     1006 1
     673     1010     1009 1
     674     1011     1009 1
     675     1013     1012 1
     676     1014     1012 1
     677     1016     1015 1
     678     1017     1015 1
     679     1019     1018 1
     680     1020     1018 1
     681     1022     1021 1
     682     1023     1021 1
     683     1025     1024 1
     684     1026     1024 1
     685     1028     1027 1
     686     1029     1027 1
     687     1031     1030 1
     688     1032     1030 1
     689     1034     1033 1
     690     1035     1033 1
     691     1037     1036 1
     692     1038     1036 1
     693     1040     1039 1
     694     1041     1039 1
     695     1043     1042 1
     696     1044     1042 1
     697     1046     1045 1
     698     1047     1045 1
     699     1049     1048 1
     700     1050     1048 1
     701     1052     1051 1
     702     1053     1051 1
     703     1055     1054 1
     704     1056     1054 1
     705     1058     1057 1
     706     1059     1057 1
     707     1061     1060 1
     708     1062     1060 1
     709     1064     1063 1
     710     1065     1063 1
     711     1067     1066 1
     712     1068     1066 1
     713     1070     1069 1
     714     1071     1069 1
     715     1073     1072 1
     716     1074     1072 1
     717     1076     1075 1
     718     1077     1075 1
     719     1079     1078 1
     720     1080     1078 1
     721     1082     1081 1
     722     1083     1081 1
     723     1085     1084 1
     724     1086     1084 1
     725     1088     1087 1
     726     1089     1087 1
     727     1091     1090 1
     728     1092     1090 1
     729     1094     1093 1
     730     1095     1093 1
     731     1097     1096 1
     732     1098     1096 1
     733     1100     1099 1
     734     1101     1099 1
     735     1103     1102 1
     736     1104     1102 1
     737     1106     1105 1
     738     1107     1105 1
     739     1109     1108 1
     740     1110     1108 1
     741     1112     1111 1
     742     1113     1111 1
     743     1115     1114 1
     744     1116     1114 1
     745     1118     1117 1
     746     1119     1117 1
     747     1121     1120 1
     748     1122     1120 1
     749     1124     1123 1
     750     1125     1123 1
     751     1127     1126 1
     752     1128     1126 1
     753     1130     1129 1
     754     1131     1129 1
     755     1133     1132 1
     756     1134     1132 1
     757     1136     1135 1
     758     1137     1135 1
     759     1139     1138 1
     760     1140     1138 1
     761     1142     1141 1
     762     1143     1141 1
     763     1145     1144 1
     764     1146     1144 1
     765     1148     1147 1
     766     1149     1147 1
     767     1151     1150 1
     768     1152     1150 1
     769     1154     1153 1
     770     1155     1153 1
     771     1157     1156 1
     772     1158     1156 1
     773     1160     1159 1
     774     1161     1159 1
     775     1163     1162 1
     776     1164     1162 1
     777     1166     1165 1
     778     1167     1165 1
     779     1169     1168 1
     780     1170     1168 1
     781     1172     1171 1
     782     1173     1171 1
     783     1175     1174 1
     784     1176     1174 1
     785     1178     1177 1
     786     1179     1177 1
     787     1181     1180 1
     788     1182     1180 1
     789     1184     1183 1
     790     1185     1183 1
     791     1187     1186 1
     792     1188     1186 1
     793     1190     1189 1
     794     1191     1189 1
     795     1193     1192 1
     796     1194     1192 1
     797     1196     1195 1
     798     1197     1195 1
     799     1199     1198 1
     800     1200     1198 1
     801     1202     1201 1
     802     1203     1201 1
     803     1205     1204 1
     804     1206     1204 1
     805     1208     1207 1
     806     1209     1207 1
     807     1211     1210 1
     808     1212     1210 1
     809     1214     1213 1
     810     1215     1213 1
     811     1217     1216 1
     812     1218     1216 1
     813     1220     1219 1
     814     1221     1219 1
     815     1223     1222 1
     816     1224     1222 1
     817     1226     1225 1
     818     1227     1225 1
     819     1229     1228 1
     820     1230     1228 1
     821     1232     1231 1
     822     1233     1231 1
     823     1235     1234 1
     824     1236     1234 1
     825     1238     1237 1
     826     1239     1237 1
     827     1241     1240 1
     828     1242     1240 1
     829     1244     1243 1
     830     1245     1243 1
     831     1247     1246 1
     832     1248     1246 1
     833     1250     1249 1
     834     1251     1249 1
     835     1253     1252 1
     836     1254     1252 1
     837     1256     1255 1
     838     1257     1255 1
     839     1259     1258 1
     840     1260     1258 1
     841     1262     1261 1
     842     1263     1261 1
     843     1265     1264 1
     844     1266     1264 1
     845     1268     1267 1
     846     1269     1267 1
     847     1271     1270 1
     848     1272     1270 1
     849     1274     1273 1
     850     1275     1273 1
     851     1277     1276 1
     852     1278     1276 1
     853     1280     1279 1
     854     1281     1279 1
     855     1283     1282 1
     856     1284     1282 1
     857     1286     1285 1
     858     1287     1285 1
     859     1289     1288 1
     860     1290     1288 1
     861     1292     1291 1
     862     1293     1291 1
     863     1295     1294 1
     864     1296     1294 1
     865     1298     1297 1
     866     1299     1297 1
     867     1301     1300 1
     868     1302     1300 1
     869     1304     1303 1
     870     1305     1303 1
     871     1307     1306 1
     872     1308     1306 1
     873     1310     1309 1
     874     1311     1309 1
     875     1313     1312 1
     876     1314     1312 1
     877     1316     1315 1
     878     1317     1315 1
     879     1319     1318 1
     880     1320     1318 1
     881     1322     1321 1
     882     1323     1321 1
     883     1325     1324 1
     884     1326     1324 1
     885     1328     1327 1
     886     1329     1327 1
     887     1331     1330 1
     888     1332     1330 1
     889     1334     1333 1
     890     1335     1333 1
     891     1337     1336 1
     892     1338     1336 1
     893     1340     1339 1
     894     1341     1339 1
     895     1343     1342 1
     896     1344     1342 1
     897     1346     1345 1
     898     1347     1345 1
     899     1349     1348 1
     900     1350     1348 1
     901     1352     1351 1
     902     1353     1351 1
     903     1355     1354 1
     904     1356     1354 1
     905     1358     1357 1
     906     1359     1357 1
     907     1361     1360 1
     908     1362     1360 1
     909     1364     1363 1
     910     1365     1363 1
     911     1367     1366 1
     912     1368     1366 1
     913     1370     1369 1
     914     1371     1369 1
     915     1373     1372 1
     916     1374     1372 1
     917     1376     1375 1
     918     1377     1375 1
     919     1379     1378 1
     920     1380     1378 1
     921     1382     1381 1
     922     1383     1381 1
     923     1385     1384 1
     924     1386     1384 1
     925     1388     1387 1
     926     1389     1387 1
     927     1391     1390 1
     928     1392     1390 1
     929     1394     1393 1
     930     1395     1393 1
     931     1397     1396 1
     932     1398     1396 1
     933     1400     1399 1
     934     1401     1399 1
     935     1403     1402 1
     936     1404     1402 1
     937     1406     1405 1
     938     1407     1405 1
     939     1409     1408 1
     940     1410     1408 1
     941     1412     1411 1
     942     1413     1411 1
     943     1415     1414 1
     944     1416     1414 1
     945     1418     1417 1
     946     1419     1417 1
     947     1421     1420 1
     948     1422     1420 1
     949     1424     1423 1
     950     1425     1423 1
     951     1427     1426 1
     952     1428     1426 1
     953     1430     1429 1
     954     1431     1429 1
     955     1433     1432 1
     956     1434     1432 1
     957     1436     1435 1
     958     1437     1435 1
     959     1439     1438 1
     960     1440     1438 1
     961     1442     1441 1
     962     1443     1441 1
     963     1445     1444 1
     964     1446     1444 1
     965     1448     1447 1
     966     1449     1447 1
     967     1451     1450 1
     968     1452     1450 1
     969     1454     1453 1
     970     1455     1453 1
     971     1457     1456 1
     972     1458     1456 1
     973     1460     1459 1
     974     1461     1459 1
     975     1463     1462 1
     976     1464     1462 1
     977     1466     1465 1
     978     1467     1465 1
     979     1469     1468 1
     980     1470     1468 1
     981     1472     1471 1
     982     1473     1471 1
     983     1475     1474 1
     984     1476     1474 1
     985     1478     1477 1
     986     1479     1477 1
     987     1481     1480 1
     988     1482     1480 1
     989     1484     1483 1
     990     1485     1483 1
     991     1487     1486 1
     992     1488     1486 1
     993     1490     1489 1
     994     1491     1489 1
     995     1493     1492 1
     996     1494     1492 1
     997     1496     1495 1
     998     1497     1495 1
     999     1499     1498 1
    1000     1500     1498 1
    1001     1502     1501 1
    1002     1503     1501 1
    1003     1505     1504 1
    1004     1506     1504 1
    1005     1508     1507 1
    1006     1509     1507 1
    1007     1511     1510 1
    1008     1512     1510 1
    1009     1514     1513 1
    1010     1515     1513 1
    1011     1517     1516 1
    1012     1518     1516 1
    1013     1520     1519 1
    1014     1521     1519 1
    1015     1523     1522 1
    1016     1524     1522 1
    1017     1526     1525 1
    1018     1527     1525 1
    1019     1529     1528 1
    1020     1530     1528 1
    1021     1532     1531 1
    1022     1533     1531 1
    1023     1535     1534 1
    1024     1536     1534 1
    1025     1538     1537 1
    1026     1539     1537 1
    1027     1541     1540 1
    1028     1542     1540 1
    1029     1544     1543 1
    1030     1545     1543 1
    1031     1547     1546 1
    1032     1548     1546 1
    1033     1550     1549 1
    1034     1551     1549 1
    1035     1553     1552 1
    1036     1554     1552 1
    1037     1556     1555 1
    1038     1557     1555 1
    1039     1559     1558 1
    1040     1560     1558 1
    1041     1562     1561 1
    1042     1563     1561 1
    1043     1565     1564 1
    1044     1566     1564 1
    1045     1568     1567 1
    1046     1569     1567 1
    1047     1571     1570 1
    1048     1572     1570 1
    1049     1574     1573 1
    1050     1575     1573 1
    1051     1577     1576 1
    1052     1578     1576 1
    1053     1580     1579 1
    1054     1581     1579 1
    1055     1583     1582 1
    1056     1584     1582 1
    1057     1586     1585 1
    1058     1587     1585 1
    1059     1589     1588 1
    1060     1590     1588 1
    1061     1592     1591 1
    1062     1593     1591 1
    1063     1595     1594 1
    1064     1596     1594 1
    1065     1598     1597 1
    1066     1599     1597 1
    1067     1601     1600 1
    1068     1602     1600 1
    1069     1604     1603 1
    1070     1605     1603 1
    1071     1607     1606 1
    1072     1608     1606 1
    1073     1610     1609 1
    1074     1611     1609 1
    1075     1613     1612 1
    1076     1614     1612 1
    1077     1616     1615 1
    1078     1617     1615 1
    1079     1619     1618 1
    1080     1620     1618 1
    1081     1622     1621 1
    1082     1623     1621 1
    1083     1625     1624 1
    1084     1626     1624 1
    1085     1628     1627 1
    1086     1629     1627 1
    1087     1631     1630 1
    1088     1632     1630 1
    1089     1634     1633 1
    1090     1635     1633 1
    1091     1637     1636 1
    1092     1638     1636 1
    1093     1640     1639 1
    1094     1641     1639 1
    1095     1643     1642 1
    1096     1644     1642 1
    1097     1646     1645 1
    1098     1647     1645 1
    1099     1649     1648 1
    1100     1650     1648 1
    1101     1652     1651 1
    1102     1653     1651 1
    1103     1655     1654 1
    1104     1656     1654 1
    1105     1658     1657 1
    1106     1659     1657 1
    1107     1661     1660 1
    1108     1662     1660 1
    1109     1664     1663 1
    1110     1665     1663 1
    1111     1667     1666 1
    1112     1668     1666 1
    1113     1670     1669 1
    1114     1671     1669 1
    1115     1673     1672 1
    1116     1674     1672 1
    1117     1676     1675 1
    1118     1677     1675 1
    1119     1679     1678 1
    1120     1680     1678 1
    1121     1682     1681 1
    1122     1683     1681 1
    1123     1685     1684 1
    1124     1686     1684 1
    1125     1688     1687 1
    1126     1689     1687 1
    1127     1691     1690 1
    1128     1692     1690 1
    1129     1694     1693 1
    1130     1695     1693 1
    1131     1697     1696 1
    1132     1698     1696 1
    1133     1700     1699 1
    1134     1701     1699 1
    1135     1703     1702 1
    1136     1704     1702 1
    1137     1706     1705 1
    1138     1707     1705 1
    1139     1709     1708 1
    1140     1710     1708 1
    1141     1712     1711 1
    1142     1713     1711 1
    1143     1715     1714 1
    1144     1716     1714 1
    1145     1718     1717 1
    1146     1719     1717 1
    1147     1721     1720 1
    1148     1722     1720 1
    1149     1724     1723 1
    1150     1725     1723 1
    1151     1727     1726 1
    1152     1728     1726 1
    1153     1730     1729 1
    1154     1731     1729 1
    1155     1733     1732 1
    1156     1734     1732 1
    1157     1736     1735 1
    1158     1737     1735 1
    1159     1739     1738 1
    1160     1740     1738 1
    1161     1742     1741 1
    1162     1743     1741 1
    1163     1745     1744 1
    1164     1746     1744 1
    1165     1748     1747 1
    1166     1749     1747 1
    1167     1751     1750 1
    1168     1752     1750 1
    1169     1754     1753 1
    1170     1755     1753 1
    1171     1757     1756 1
    1172     1758     1756 1
    1173     1760     1759 1
    1174     1761     1759 1
    1175     1763     1762 1
    1176     1764     1762 1
    1177     1766     1765 1
    1178     1767     1765 1
    1179     1769     1768 1
    1180     1770     1768 1
    1181     1772     1771 1
    1182     1773     1771 1
    1183     1775     1774 1
    1184     1776     1774 1
    1185     1778     1777 1
    1186     1779     1777 1
    1187     1781     1780 1
    1188     1782     1780 1
    1189     1784     1783 1
    1190     1785     1783 1
    1191     1787     1786 1
    1192     1788     1786 1
    1193     1790     1789 1
    1194     1791     1789 1
    1195     1793     1792 1
    1196     1794     1792 1
    1197     1796     1795 1
    1198     1797     1795 1
    1199     1799     1798 1
    1200     1800     1798 1
    1201     1802     1801 1
    1202     1803     1801 1
    1203     1805     1804 1
    1204     1806     1804 1
    1205     1808     1807 1
    1206     1809     1807 1
    1207     1811     1810 1
    1208     1812     1810 1
    1209     1814     1813 1
    1210     1815     1813 1
    1211     1817     1816 1
    1212     1818     1816 1
    1213     1820     1819 1
    1214     1821     1819 1
    1215     1823     1822 1
    1216     1824     1822 1
    1217     1826     1825 1
    1218     1827     1825 1
    1219     1829     1828 1
    1220     1830     1828 1
    1221     1832     1831 1
    1222     1833     1831 1
    1223     1835     1834 1
    1224     1836     1834 1
    1225     1838     1837 1
    1226     1839     1837 1
    1227     1841     1840 1
    1228     1842     1840 1
    1229     1844     1843 1
    1230     1845     1843 1
    1231     1847     1846 1
    1232     1848     1846 1
    1233     1850     1849 1
    1234     1851     1849 1
    1235     1853     1852 1
    1236     1854     1852 1
    1237     1856     1855 1
    1238     1857     1855 1
    1239     1859     1858 1
    1240     1860     1858 1
    1241     1862     1861 1
    1242     1863     1861 1
    1243     1865     1864 1
    1244     1866     1864 1
    1245     1868     1867 1
    1246     1869     1867 1
    1247     1871     1870 1
    1248     1872     1870 1
    1249     1874     1873 1
    1250     1875     1873 1
    1251     1877     1876 1
    1252     1878     1876 1
    1253     1880     1879 1
    1254     1881     1879 1
    1255     1883     1882 1
    1256     1884     1882 1
    1257     1886     1885 1
    1258     1887     1885 1
    1259     1889     1888 1
    1260     1890     1888 1
    1261     1892     1891 1
    1262     1893     1891 1
    1263     1895     1894 1
    1264     1896     1894 1
    1265     1898     1897 1
    1266     1899     1897 1
    1267     1901     1900 1
    1268     1902     1900 1
    1269     1904     1903 1
    1270     1905     1903 1
    1271     1907     1906 1
    1272     1908     1906 1
    1273     1910     1909 1
    1274     1911     1909 1
    1275     1913     1912 1
    1276     1914     1912 1
    1277     1916     1915 1
    1278     1917     1915 1
    1279     1919     1918 1
    1280     1920     1918 1
    1281     1922     1921 1
    1282     1923     1921 1
    1283     1925     1924 1
    1284     1926     1924 1
    1285     1928     1927 1
    1286     1929     1927 1
    1287     1931     1930 1
    1288     1932     1930 1
    1289     1934     1933 1
    1290     1935     1933 1
    1291     1937     1936 1
    1292     1938     1936 1
    1293     1940     1939 1
    1294     1941     1939 1
    1295     1943     1942 1
    1296     1944     1942 1
    1297     1946     1945 1
    1298     1947     1945 1
    1299     1949     1948 1
    1300     1950     1948 1
    1301     1952     1951 1
    1302     1953     1951 1
    1303     1955     1954 1
    1304     1956     1954 1
    1305     1958     1957 1
    1306     1959     1957 1
    1307     1961     1960 1
    1308     1962     1960 1
    1309     1964     1963 1
    1310     1965     1963 1
    1311     1967     1966 1
    1312     1968     1966 1
    1313     1970     1969 1
    1314     1971     1969 1
    1315     1973     1972 1
    1316     1974     1972 1
    1317     1976     1975 1
    1318     1977     1975 1
    1319     1979     1978 1
    1320     1980     1978 1
    1321     1982     1981 1
    1322     1983     1981 1
    1323     1985     1984 1
    1324     1986     1984 1
    1325     1988     1987 1
    1326     1989     1987 1
    1327     1991     1990 1
    1328     1992     1990 1
    1329     1994     1993 1
    1330     1995     1993 1
    1331     1997     1996 1
    1332     1998     1996 1
    1333     2000     1999 1
    1334     2001     1999 1
    1335     2003     2002 1
    1336     2004     2002 1
    1337     2006     2005 1
    1338     2007     2005 1
    1339     2009     2008 1
    1340     2010     2008 1
    1341     2012     2011 1
    1342     2013     2011 1
    1343     2015     2014 1
    1344     2016     2014 1
    1345     2018     2017 1
    1346     2019     2017 1
    1347     2021     2020 1
    1348     2022     2020 1
    1349     2024     2023 1
    1350     2025     2023 1
    1351     2027     2026 1
    1352     2028     2026 1
    1353     2030     2029 1
    1354     2031     2029 1
    1355     2033     2032 1
    1356     2034     2032 1
    1357     2036     2035 1
    1358     2037     2035 1
    1359     2039     2038 1
    1360     2040     2038 1
    1361     2042     2041 1
    1362     2043     2041 1
    1363     2045     2044 1
    1364     2046     2044 1
    1365     2048     2047 1
    1366     2049     2047 1
    1367     2051     2050 1
    1368     2052     2050 1
    1369     2054     2053 1
    1370     2055     2053 1
    1371     2057     2056 1
    1372     2058     2056 1
    1373     2060     2059 1
    1374     2061     2059 1
    1375     2063     2062 1
    1376     2064     2062 1
    1377     2066     2065 1
    1378     2067     2065 1
    1379     2069     2068 1
    1380     2070     2068 1
    1381     2072     2071 1
    1382     2073     2071 1
    1383     2075     2074 1
    1384     2076     2074 1
    1385     2078     2077 1
    1386     2079     2077 1
    1387     2081     2080 1
    1388     2082     2080 1
    1389     2084     2083 1
    1390     2085     2083 1
    1391     2087     2086 1
    1392     2088     2086 1
    1393     2090     2089 1
    1394     2091     2089 1
    1395     2093     2092 1
    1396     2094     2092 1
    1397     2096     2095 1
    1398     2097     2095 1
    1399     2099     2098 1
    1400     2100     2098 1
    1401     2102     2101 1
    1402     2103     2101 1
    1403     2105     2104 1
    1404     2106     2104 1
    1405     2108     2107 1
    1406     2109     2107 1
    1407     2111     2110 1
    1408     2112     2110 1
    1409     2114     2113 1
    1410     2115     2113 1
    1411     2117     2116 1
    1412     2118     2116 1
    1413     2120     2119 1
    1414     2121     2119 1
    1415     2123     2122 1
    1416     2124     2122 1
    1417     2126     2125 1
    1418     2127     2125 1
    1419     2129     2128 1
    1420     2130     2128 1
    1421     2132     2131 1
    1422     2133     2131 1
    1423     2135     2134 1
    1424     2136     2134 1
    1425     2138     2137 1
    1426     2139     2137 1
    1427     2141     2140 1
    1428     2142     2140 1
    1429     2144     2143 1
    1430     2145     2143 1
    1431     2147     2146 1
    1432     2148     2146 1
    1433     2150     2149 1
    1434     2151     2149 1
    1435     2153     2152 1
    1436     2154     2152 1
    1437     2156     2155 1
    1438     2157     2155 1
    1439     2159     2158 1
    1440     2160     2158 1
    1441     2162     2161 1
    1442     2163     2161 1
    1443     2165     2164 1
    1444     2166     2164 1
    1445     2168     2167 1
    1446     2169     2167 1
    1447     2171     2170 1
    1448     2172     2170 1
    1449     2174     2173 1
    1450     2175     2173 1
    1451     2177     2176 1
    1452     2178     2176 1
    1453     2180     2179 1
    1454     2181     2179 1
    1455     2183     2182 1
    1456     2184     2182 1
    1457     2186     2185 1
    1458     2187     2185 1
    1459     2189     2188 1
    1460     2190     2188 1
    1461     2192     2191 1
    1462     2193     2191 1
    1463     2195     2194 1
    1464     2196     2194 1
    1465     2198     2197 1
    1466     2199     2197 1
    1467     2201     2200 1
    1468     2202     2200 1
    1469     2204     2203 1
    1470     2205     2203 1
    1471     2207     2206 1
    1472     2208     2206 1
    1473     2210     2209 1
    1474     2211     2209 1
    1475     2213     2212 1
    1476     2214     2212 1
    1477     2216     2215 1
    1478     2217     2215 1
    1479     2219     2218 1
    1480     2220     2218 1
    1481     2222     2221 1
    1482     2223     2221 1
    1483     2225     2224 1
    1484     2226     2224 1
    1485     2228     2227 1
    1486     2229     2227 1
    1487     2231     2230 1
    1488     2232     2230 1
    1489     2234     2233 1
    1490     2235     2233 1
    1491     2237     2236 1
    1492     2238     2236 1
    1493     2240     2239 1
    1494     2241     2239 1
    1495     2243     2242 1
    1496     2244     2242 1
    1497     2246     2245 1
    1498     2247     2245 1
    1499     2249     2248 1
    1500     2250     2248 1
    1501     2252     2251 1
    1502     2253     2251 1
    1503     2255     2254 1
    1504     2256     2254 1
    1505     2258     2257 1
    1506     2259     2257 1
    1507     2261     2260 1
    1508     2262     2260 1
    1509     2264     2263 1
    1510     2265     2263 1
    1511     2267     2266 1
    1512     2268     2266 1
    1513     2270     2269 1
    1514     2271     2269 1
    1515     2273     2272 1
    1516     2274     2272 1
    1517     2276     2275 1
    1518     2277     2275 1
    1519     2279     2278 1
    1520     2280     2278 1
    1521     2282     2281 1
    1522     2283     2281 1
    1523     2285     2284 1
    1524     2286     2284 1
    1525     2288     2287 1
    1526     2289     2287 1
    1527     2291     2290 1
    1528     2292     2290 1
    1529     2294     2293 1
    1530     2295     2293 1
    1531     2297     2296 1
    1532     2298     2296 1
    1533     2300     2299 1
    1534     2301     2299 1
    1535     2303     2302 1
    1536     2304     2302 1
    1537     2306     2305 1
    1538     2307     2305 1
    1539     2309     2308 1
    1540     2310     2308 1
    1541     2312     2311 1
    1542     2313     2311 1
    1543     2315     2314 1
    1544     2316     2314 1
    1545     2318     2317 1
    1546     2319     2317 1
    1547     2321     2320 1
    1548     2322     2320 1
    1549     2324     2323 1
    1550     2325     2323 1
    1551     2327     2326 1
    1552     2328     2326 1
    1553     2330     2329 1
    1554     2331     2329 1
    1555     2333     2332 1
    1556     2334     2332 1
    1557     2336     2335 1
    1558     2337     2335 1
    1559     2339     2338 1
    1560     2340     2338 1
    1561     2342     2341 1
    1562     2343     2341 1
    1563     2345     2344 1
    1564     2346     2344 1
    1565     2348     2347 1
    1566     2349     2347 1
    1567     2351     2350 1
    1568     2352     2350 1
    1569     2354     2353 1
    1570     2355     2353 1
    1571     2357     2356 1
    1572     2358     2356 1
    1573     2360     2359 1
    1574     2361     2359 1
    1575     2363     2362 1
    1576     2364     2362 1
    1577     2366     2365 1
    1578     2367     2365 1
    1579     2369     2368 1
    1580     2370     2368 1
    1581     2372     2371 1
    1582     2373     2371 1
    1583     2375     2374 1
    1584     2376     2374 1
    1585     2378     2377 1
    1586     2379     2377 1
    1587     2381     2380 1
    1588     2382     2380 1
    1589     2384     2383 1
    1590     2385     2383 1
    1591     2387     2386 1
    1592     2388     2386 1
    1593     2390     2389 1
    1594     2391     2389 1
    1595     2393     2392 1
    1596     2394     2392 1
    1597     2396     2395 1
    1598     2397     2395 1
    1599     2399     2398 1
    1600     2400     2398 1
    1601     2402     2401 1
    1602     2403     2401 1
    1603     2405     2404 1
    1604     2406     2404 1
    1605     2408     2407 1
    1606     2409     2407 1
    1607     2411     2410 1
    1608     2412     2410 1
    1609     2414     2413 1
    1610     2415     2413 1
    1611     2417     2416 1
    1612     2418     2416 1
    1613     2420     2419 1
    1614     2421     2419 1
    1615     2423     2422 1
    1616     2424     2422 1
    1617     2426     2425 1
    1618     2427     2425 1
    1619     2429     2428 1
    1620     2430     2428 1
    1621     2432     2431 1
    1622     2433     2431 1
    1623     2435     2434 1
    1624     2436     2434 1
    1625     2438     2437 1
    1626     2439     2437 1
    1627     2441     2440 1
    1628     2442     2440 1
    1629     2444     2443 1
    1630     2445     2443 1
    1631     2447     2446 1
    1632     2448     2446 1
    1633     2450     2449 1
    1634     2451     2449 1
    1635     2453     2452 1
    1636     2454     2452 1
    1637     2456     2455 1
    1638     2457     2455 1
    1639     2459     2458 1
    1640     2460     2458 1
    1641     2462     2461 1
    1642     2463     2461 1
    1643     2465     2464 1
    1644     2466     2464 1
    1645     2468     2467 1
    1646     2469     2467 1
    1647     2471     2470 1
    1648     2472     2470 1
    1649     2474     2473 1
    1650     2475     2473 1
    1651     2477     2476 1
    1652     2478     2476 1
    1653     2480     2479 1
    1654     2481     2479 1
    1655     2483     2482 1
    1656     2484     2482 1
    1657     2486     2485 1
    1658     2487     2485 1
    1659     2489     2488 1
    1660     2490     2488 1
    1661     2492     2491 1
    1662     2493     2491 1
    1663     2495     2494 1
    1664     2496     2494 1
    1665     2498     2497 1
    1666     2499     2497 1
    1667     2501     2500 1
    1668     2502     2500 1
    1669     2504     2503 1
    1670     2505     2503 1
    1671     2507     2506 1
    1672     2508     2506 1
    1673     2510     2509 1
    1674     2511     2509 1
    1675     2513     2512 1
    1676     2514     2512 1
    1677     2516     2515 1
    1678     2517     2515 1
    1679     2519     2518 1
    1680     2520     2518 1
    1681     2522     2521 1
    1682     2523     2521 1
    1683     2525     2524 1
    1684     2526     2524 1
    1685     2528     2527 1
    1686     2529     2527 1
    1687     2531     2530 1
    1688     2532     2530 1
    1689     2534     2533 1
    1690     2535     2533 1
    1691     2537     2536 1
    1692     2538     2536 1
    1693     2540     2539 1
    1694     2541     2539 1
    1695     2543     2542 1
    1696     2544     2542 1
    1697     2546     2545 1
    1698     2547     2545 1
    1699     2549     2548 1
    1700     2550     2548 1
    1701     2552     2551 1
    1702     2553     2551 1
    1703     2555     2554 1
    1704     2556     2554 1
    1705     2558     2557 1
    1706     2559     2557 1
    1707     2561     2560 1
    1708     2562     2560 1
    1709     2564     2563 1
    1710     2565     2563 1
    1711     2567     2566 1
    1712     2568     2566 1
    1713     2570     2569 1
    1714     2571     2569 1
    1715     2573     2572 1
    1716     2574     2572 1
    1717     2576     2575 1
    1718     2577     2575 1
    1719     2579     2578 1
    1720     2580     2578 1
    1721     2582     2581 1
    1722     2583     2581 1
    1723     2585     2584 1
    1724     2586     2584 1
    1725     2588     2587 1
    1726     2589     2587 1
    1727     2591     2590 1
    1728     2592     2590 1
    1729     2594     2593 1
    1730     2595     2593 1
    1731     2597     2596 1
    1732     2598     2596 1
    1733     2600     2599 1
    1734     2601     2599 1
    1735     2603     2602 1
    1736     2604     2602 1
    1737     2606     2605 1
    1738     2607     2605 1
    1739     2609     2608 1
    1740     2610     2608 1
    1741     2612     2611 1
    1742     2613     2611 1
    1743     2615     2614 1
    1744     2616     2614 1
    1745     2618     2617 1
    1746     2619     2617 1
    1747     2621     2620 1
    1748     2622     2620 1
    1749     2624     2623 1
    1750     2625     2623 1
    1751     2627     2626 1
    1752     2628     2626 1
    1753     2630     2629 1
    1754     2631     2629 1
    1755     2633     2632 1
    1756     2634     2632 1
    1757     2636     2635 1
    1758     2637     2635 1
    1759     2639     2638 1
    1760     2640     2638 1
    1761     2642     2641 1
    1762     2643     2641 1
    1763     2645     2644 1
    1764     2646     2644 1
    1765     2648     2647 1
    1766     2649     2647 1
    1767     2651     2650 1
    1768     2652     2650 1
    1769     2654     2653 1
    1770     2655     2653 1
    1771     2657     2656 1
    1772     2658     2656 1
    1773     2660     2659 1
    1774     2661     2659 1
    1775     2663     2662 1
    1776     2664     2662 1
    1777     2666     2665 1
    1778     2667     2665 1
    1779     2669     2668 1
    1780     2670     2668 1
    1781     2672     2671 1
    1782     2673     2671 1
    1783     2675     2674 1
    1784     2676     2674 1
    1785     2678     2677 1
    1786     2679     2677 1
    1787     2681     2680 1
    1788     2682     2680 1
    1789     2684     2683 1
    1790     2685     2683 1
    1791     2687     2686 1
    1792     2688     2686 1
    1793     2690     2689 1
    1794     2691     2689 1
    1795     2693     2692 1
    1796     2694     2692 1
    1797     2696     2695 1
    1798     2697     2695 1
    1799     2699     2698 1
    1800     2700     2698 1
    1801     2702     2701 1
    1802     2703     2701 1
    1803     2705     2704 1
    1804     2706     2704 1
    1805     2708     2707 1
    1806     2709     2707 1
    1807     2711     2710 1
    1808     2712     2710 1
    1809     2714     2713 1
    1810     2715     2713 1
    1811     2717     2716 1
    1812     2718     2716 1
    1813     2720     2719 1
    1814     2721     2719 1
    1815     2723     2722 1
    1816     2724     2722 1
    1817     2726     2725 1
    1818     2727     2725 1
    1819     2729     2728 1
    1820     2730     2728 1
    1821     2732     2731 1
    1822     2733     2731 1
    1823     2735     2734 1
    1824     2736     2734 1
    1825     2738     2737 1
    1826     2739     2737 1
    1827     2741     2740 1
    1828     2742     2740 1
    1829     2744     2743 1
    1830     2745     2743 1
    1831     2747     2746 1
    1832     2748     2746 1
    1833     2750     2749 1
    1834     2751     2749 1
    1835     2753     2752 1
    1836     2754     2752 1
    1837     2756     2755 1
    1838     2757     2755 1
    1839     2759     2758 1
    1840     2760     2758 1
    1841     2762     2761 1
    1842     2763     2761 1
    1843     2765     2764 1
    1844     2766     2764 1
    1845     2768     2767 1
    1846     2769     2767 1
    1847     2771     2770 1
    1848     2772     2770 1
    1849     2774     2773 1
    1850     2775     2773 1
    1851     2777     2776 1
    1852     2778     2776 1
    1853     2780     2779 1
    1854     2781     2779 1
    1855     2783     2782 1
    1856     2784     2782 1
    1857     2786     2785 1
    1858     2787     2785 1
    1859     2789     2788 1
    1860     2790     2788 1
    1861     2792     2791 1
    1862     2793     2791 1
    1863     2795     2794 1
    1864     2796     2794 1
    1865     2798     2797 1
    1866     2799     2797 1
    1867     2801     2800 1
    1868     2802     2800 1
    1869     2804     2803 1
    1870     2805     2803 1
    1871     2807     2806 1
    1872     2808     2806 1
    1873     2810     2809 1
    1874     2811     2809 1
    1875     2813     2812 1
    1876     2814     2812 1
    1877     2816     2815 1
    1878     2817     2815 1
    1879     2819     2818 1
    1880     2820     2818 1
    1881     2822     2821 1
    1882     2823     2821 1
    1883     2825     2824 1
    1884     2826     2824 1
    1885     2828     2827 1
    1886     2829     2827 1
    1887     2831     2830 1
    1888     2832     2830 1
    1889     2834     2833 1
    1890     2835     2833 1
    1891     2837     2836 1
    1892     2838     2836 1
    1893     2840     2839 1
    1894     2841     2839 1
    1895     2843     2842 1
    1896     2844     2842 1
    1897     2846     2845 1
    1898     2847     2845 1
    1899     2849     2848 1
    1900     2850     2848 1
    1901     2852     2851 1
    1902     2853     2851 1
    1903     2855     2854 1
    1904     2856     2854 1
    1905     2858     2857 1
    1906     2859     2857 1
    1907     2861     2860 1
    1908     2862     2860 1
    1909     2864     2863 1
    1910     2865     2863 1
    1911     2867     2866 1
    1912     2868     2866 1
    1913     2870     2869 1
    1914     2871     2869 1
    1915     2873     2872 1
    1916     2874     2872 1
    1917     2876     2875 1
    1918     2877     2875 1
    1919     2879     2878 1
    1920     2880     2878 1
    1921     2882     2881 1
    1922     2883     2881 1
    1923     2885     2884 1
    1924     2886     2884 1
    1925     2888     2887 1
    1926     2889     2887 1
    1927     2891     2890 1
    1928     2892     2890 1
    1929     2894     2893 1
    1930     2895     2893 1
    1931     2897     2896 1
    1932     2898     2896 1
    1933     2900     2899 1
    1934     2901     2899 1
    1935     2903     2902 1
    1936     2904     2902 1
    1937     2906     2905 1
    1938     2907     2905 1
    1939     2909     2908 1
    1940     2910     2908 1
    1941     2912     2911 1
    1942     2913     2911 1
    1943     2915     2914 1
    1944     2916     2914 1
    1945     2918     2917 1
    1946     2919     2917 1
    1947     2921     2920 1
    1948     2922     2920 1
    1949     2924     2923 1
    1950     2925     2923 1
    1951     2927     2926 1
    1952     2928     2926 1
    1953     2930     2929 1
    1954     2931     2929 1
    1955     2933     2932 1
    1956     2934     2932 1
    1957     2936     2935 1
    1958     2937     2935 1
    1959     2939     2938 1
    1960     2940     2938 1
    1961     2942     2941 1
    1962     2943     2941 1
    1963     2945     2944 1
    1964     2946     2944 1
    1965     2948     2947 1
    1966     2949     2947 1
    1967     2951     2950 1
    1968     2952     2950 1
    1969     2954     2953 1
    1970     2955     2953 1
    1971     2957     2956 1
    1972     2958     2956 1
    1973     2960     2959 1
    1974     2961     2959 1
    1975     2963     2962 1
    1976     2964     2962 1
    1977     2966     2965 1
    1978     2967     2965 1
    1979     2969     2968 1
    1980     2970     2968 1
    1981     2972     2971 1
    1982     2973     2971 1
    1983     2975     2974 1
    1984     2976     2974 1
    1985     2978     2977 1
    1986     2979     2977 1
    1987     2981     2980 1
    1988     2982     2980 1
    1989     2984     2983 1
    1990     2985     2983 1
    1991     2987     2986 1
    1992     2988     2986 1
    1993     2990     2989 1
    1994     2991     2989 1
    1995     2993     2992 1
    1996     2994     2992 1
    1997     2996     2995 1
    1998     2997     2995 1
    1999     2999     2998 1
    2000     3000     2998 1
    2001     3002     3001 1
    2002     3003     3001 1
    2003     3005     3004 1
    2004     3006     3004 1
    2005     3008     3007 1
    2006     3009     3007 1
    2007     3011     3010 1
    2008     3012     3010 1
    2009     3014     3013 1
    2010     3015     3013 1
    2011     3017     3016 1
    2012     3018     3016 1
    2013     3020     3019 1
    2014     3021     3019 1
    2015     3023     3022 1
    2016     3024     3022 1
    2017     3026     3025 1
    2018     3027     3025 1
    2019     3029     3028 1
    2020     3030     3028 1
    2021     3032     3031 1
    2022     3033     3031 1
    2023     3035     3034 1
    2024     3036     3034 1
    2025     3038     3037 1
    2026     3039     3037 1
    2027     3041     3040 1
    2028     3042     3040 1
    2029     3044     3043 1
    2030     3045     3043 1
    2031     3047     3046 1
    2032     3048     3046 1
    2033     3050     3049 1
    2034     3051     3049 1
    2035     3053     3052 1
    2036     3054     3052 1
    2037     3056     3055 1
    2038     3057     3055 1
    2039     3059     3058 1
    2040     3060     3058 1
    2041     3062     3061 1
    2042     3063     3061 1
    2043     3065     3064 1
    2044     3066     3064 1
    2045     3068     3067 1
    2046     3069     3067 1
    2047     3071     3070 1
    2048     3072     3070 1
    2049     3074     3073 1
    2050     3075     3073 1
    2051     3077     3076 1
    2052     3078     3076 1
    2053     3080     3079 1
    2054     3081     3079 1
    2055     3083     3082 1
    2056     3084     3082 1
    2057     3086     3085 1
    2058     3087     3085 1
    2059     3089     3088 1
    2060     3090     3088 1
    2061     3092     3091 1
    2062     3093     3091 1
    2063     3095     3094 1
    2064     3096     3094 1
    2065     3098     3097 1
    2066     3099     3097 1
    2067     3101     3100 1
    2068     3102     3100 1
    2069     3104     3103 1
    2070     3105     3103 1
    2071     3107     3106 1
    2072     3108     3106 1
    2073     3110     3109 1
    2074     3111     3109 1
    2075     3113     3112 1
    2076     3114     3112 1
    2077     3116     3115 1
    2078     3117     3115 1
    2079     3119     3118 1
    2080     3120     3118 1
    2081     3122     3121 1
    2082     3123     3121 1
    2083     3125     3124 1
    2084     3126     3124 1
    2085     3128     3127 1
    2086     3129     3127 1
    2087     3131     3130 1
    2088     3132     3130 1
    2089     3134     3133 1
    2090     3135     3133 1
    2091     3137     3136 1
    2092     3138     3136 1
    2093     3140     3139 1
    2094     3141     3139 1
    2095     3143     3142 1
    2096     3144     3142 1
    2097     3146     3145 1
    2098     3147     3145 1
    2099     3149     3148 1
    2100     3150     3148 1
    2101     3152     3151 1
    2102     3153     3151 1
    2103     3155     3154 1
    2104     3156     3154 1
    2105     3158     3157 1
    2106     3159     3157 1
    2107     3161     3160 1
    2108     3162     3160 1
    2109     3164     3163 1
    2110     3165     3163 1
    2111     3167     3166 1
    2112     3168     3166 1
    2113     3170     3169 1
    2114     3171     3169 1
    2115     3173     3172 1
    2116     3174     3172 1
    2117     3176     3175 1
    2118     3177     3175 1
    2119     3179     3178 1
    2120     3180     3178 1
    2121     3182     3181 1
    2122     3183     3181 1
    2123     3185     3184 1
    2124     3186     3184 1
    2125     3188     3187 1
    2126     3189     3187 1
    2127     3191     3190 1
    2128     3192     3190 1
    2129     3194     3193 1
    2130     3195     3193 1
    2131     3197     3196 1
    2132     3198     3196 1
    2133     3200     3199 1
    2134     3201     3199 1
    2135     3203     3202 1
    2136     3204     3202 1
    2137     3206     3205 1
    2138     3207     3205 1
    2139     3209     3208 1
    2140     3210     3208 1
    2141     3212     3211 1
    2142     3213     3211 1
    2143     3215     3214 1
    2144     3216     3214 1
    2145     3218     3217 1
    2146     3219     3217 1
    2147     3221     3220 1
    2148     3222     3220 1
    2149     3224     3223 1
    2150     3225     3223 1
    2151     3227     3226 1
    2152     3228     3226 1
    2153     3230     3229 1
    2154     3231     3229 1
    2155     3233     3232 1
    2156     3234     3232 1
    2157     3236     3235 1
    2158     3237     3235 1
    2159     3239     3238 1
    2160     3240     3238 1
    2161     3242     3241 1
    2162     3243     3241 1
    2163     3245     3244 1
    2164     3246     3244 1
    2165     3248     3247 1
    2166     3249     3247 1
    2167     3251     3250 1
    2168     3252     3250 1
    2169     3254     3253 1
    2170     3255     3253 1
    2171     3257     3256 1
    2172     3258     3256 1
    2173     3260     3259 1
    2174     3261     3259 1
    2175     3263     3262 1
    2176     3264     3262 1
    2177     3266     3265 1
    2178     3267     3265 1
    2179     3269     3268 1
    2180     3270     3268 1
    2181     3272     3271 1
    2182     3273     3271 1
    2183     3275     3274 1
    2184     3276     3274 1
    2185     3278     3277 1
    2186     3279     3277 1
    2187     3281     3280 1
    2188     3282     3280 1
    2189     3284     3283 1
    2190     3285     3283 1
    2191     3287     3286 1
    2192     3288     3286 1
    2193     3290     3289 1
    2194     3291     3289 1
    2195     3293     3292 1
    2196     3294     3292 1
    2197     3296     3295 1
    2198     3297     3295 1
    2199     3299     3298 1
    2200     3300     3298 1
@<TRIPOS>SUBSTRUCTURE
       1 RES             1 RESIDUE    0 1    ROOT      0
