@<TRIPOS>MOLECULE
RES
2400 2400 1 0 1
SMALL
NO_CHARGES
@<TRIPOS>CRYSIN
   42.1700    42.1700    42.1700    90.0000    90.0000    90.0000  1  1
@<TRIPOS>ATOM
       1 _CH         11.0656    14.4009     4.8502 CH_sp2        1 RES
       2 _CH         11.8791    14.7807     5.9244 CH_sp2        1 RES
       3 _CH         13.2676    14.6222     5.8411 CH_sp2        1 RES
       4 _CH         13.8426    14.0839     4.6837 CH_sp2        1 RES
       5 _CH         13.0290    13.7041     3.6095 CH_sp2        1 RES
       6 _CH         11.6405    13.8626     3.6928 CH_sp2        1 RES
       7 _CH         13.7000    29.9886     7.2904 CH_sp2        1 RES
       8 _CH         13.2888    31.3268     7.2843 CH_sp2        1 RES
       9 _CH         14.1692    32.3316     7.7033 CH_sp2        1 RES
      10 _CH         15.4607    31.9981     8.1284 CH_sp2        1 RES
      11 _CH         15.8719    30.6598     8.1345 CH_sp2        1 RES
      12 _CH         14.9916    29.6551     7.7155 CH_sp2        1 RES
      13 _CH         13.2417    16.3580     8.3939 CH_sp2        1 RES
      14 _CH         12.6178    15.1690     8.7900 CH_sp2        1 RES
      15 _CH         11.2386    15.1483     9.0297 CH_sp2        1 RES
      16 _CH         10.4833    16.3167     8.8733 CH_sp2        1 RES
      17 _CH         11.1073    17.5058     8.4772 CH_sp2        1 RES
      18 _CH         12.4864    17.5264     8.2375 CH_sp2        1 RES
      19 _CH         18.2750    23.2267    37.3090 CH_sp2        1 RES
      20 _CH         18.3762    24.5322    37.8046 CH_sp2        1 RES
      21 _CH         17.2177    25.2613    38.0981 CH_sp2        1 RES
      22 _CH         15.9579    24.6850    37.8961 CH_sp2        1 RES
      23 _CH         15.8567    23.3795    37.4005 CH_sp2        1 RES
      24 _CH         17.0152    22.6504    37.1070 CH_sp2        1 RES
      25 _CH         39.5020     7.3360    23.0465 CH_sp2        1 RES
      26 _CH         38.3690     6.7249    22.4963 CH_sp2        1 RES
      27 _CH         37.8276     7.2044    21.2976 CH_sp2        1 RES
      28 _CH         38.4193     8.2949    20.6490 CH_sp2        1 RES
      29 _CH         39.5524     8.9060    21.1992 CH_sp2        1 RES
      30 _CH         40.0938     8.4265    22.3980 CH_sp2        1 RES
      31 _CH         32.1262    34.1113    19.1744 CH_sp2        1 RES
      32 _CH         33.3433    33.4506    19.3798 CH_sp2        1 RES
      33 _CH         34.3116    34.0124    20.2205 CH_sp2        1 RES
      34 _CH         34.0628    35.2349    20.8558 CH_sp2        1 RES
      35 _CH         32.8457    35.8955    20.6505 CH_sp2        1 RES
      36 _CH         31.8774    35.3337    19.8098 CH_sp2        1 RES
      37 _CH         28.1675    40.1695    35.7055 CH_sp2        1 RES
      38 _CH         29.5639    40.0709    35.6845 CH_sp2        1 RES
      39 _CH         30.1752    38.8191    35.5462 CH_sp2        1 RES
      40 _CH         29.3902    37.6658    35.4287 CH_sp2        1 RES
      41 _CH         27.9938    37.7644    35.4497 CH_sp2        1 RES
      42 _CH         27.3825    39.0163    35.5881 CH_sp2        1 RES
      43 _CH         21.3120    38.2490    27.3830 CH_sp2        1 RES
      44 _CH         20.0288    38.1212    26.8380 CH_sp2        1 RES
      45 _CH         19.5426    36.8579    26.4807 CH_sp2        1 RES
      46 _CH         20.3397    35.7224    26.6684 CH_sp2        1 RES
      47 _CH         21.6229    35.8502    27.2134 CH_sp2        1 RES
      48 _CH         22.1091    37.1135    27.5707 CH_sp2        1 RES
      49 _CH         34.2957     9.9335    25.6767 CH_sp2        1 RES
      50 _CH         35.0979     8.7861    25.6834 CH_sp2        1 RES
      51 _CH         34.5053     7.5177    25.6841 CH_sp2        1 RES
      52 _CH         33.1106     7.3966    25.6782 CH_sp2        1 RES
      53 _CH         32.3084     8.5440    25.6716 CH_sp2        1 RES
      54 _CH         32.9009     9.8124    25.6708 CH_sp2        1 RES
      55 _CH         31.2670    37.5282    26.0744 CH_sp2        1 RES
      56 _CH         30.9331    38.8580    26.3570 CH_sp2        1 RES
      57 _CH         29.6039    39.2032    26.6296 CH_sp2        1 RES
      58 _CH         28.6088    38.2186    26.6195 CH_sp2        1 RES
      59 _CH         28.9427    36.8887    26.3368 CH_sp2        1 RES
      60 _CH         30.2719    36.5435    26.0643 CH_sp2        1 RES
      61 _CH         23.8586    27.9082    16.0990 CH_sp2        1 RES
      62 _CH         22.5614    27.3820    16.0784 CH_sp2        1 RES
      63 _CH         21.4569    28.2424    16.0772 CH_sp2        1 RES
      64 _CH         21.6497    29.6289    16.0965 CH_sp2        1 RES
      65 _CH         22.9469    30.1551    16.1170 CH_sp2        1 RES
      66 _CH         24.0513    29.2947    16.1183 CH_sp2        1 RES
      67 _CH         22.2844    17.3519    33.1301 CH_sp2        1 RES
      68 _CH         23.6563    17.4446    33.3936 CH_sp2        1 RES
      69 _CH         24.5795    16.8818    32.5043 CH_sp2        1 RES
      70 _CH         24.1309    16.2262    31.3516 CH_sp2        1 RES
      71 _CH         22.7591    16.1334    31.0881 CH_sp2        1 RES
      72 _CH         21.8358    16.6962    31.9773 CH_sp2        1 RES
      73 _CH         30.8459    36.1391     6.3477 CH_sp2        1 RES
      74 _CH         30.5359    37.3151     7.0412 CH_sp2        1 RES
      75 _CH         29.4642    37.3348     7.9418 CH_sp2        1 RES
      76 _CH         28.7026    36.1785     8.1490 CH_sp2        1 RES
      77 _CH         29.0126    35.0025     7.4556 CH_sp2        1 RES
      78 _CH         30.0843    34.9828     6.5549 CH_sp2        1 RES
      79 _CH         22.7556    33.4000    13.9370 CH_sp2        1 RES
      80 _CH         21.3654    33.2408    13.8933 CH_sp2        1 RES
      81 _CH         20.8038    32.1922    13.1551 CH_sp2        1 RES
      82 _CH         21.6324    31.3029    12.4605 CH_sp2        1 RES
      83 _CH         23.0226    31.4621    12.5042 CH_sp2        1 RES
      84 _CH         23.5842    32.5107    13.2425 CH_sp2        1 RES
      85 _CH         14.3969    19.0742    29.2957 CH_sp2        1 RES
      86 _CH         14.6344    17.7100    29.5024 CH_sp2        1 RES
      87 _CH         13.7181    16.7610    29.0335 CH_sp2        1 RES
      88 _CH         12.5644    17.1762    28.3579 CH_sp2        1 RES
      89 _CH         12.3269    18.5403    28.1511 CH_sp2        1 RES
      90 _CH         13.2431    19.4893    28.6200 CH_sp2        1 RES
      91 _CH         17.9763    18.6270    17.5456 CH_sp2        1 RES
      92 _CH         16.8233    18.9724    18.2606 CH_sp2        1 RES
      93 _CH         16.5160    20.3197    18.4848 CH_sp2        1 RES
      94 _CH         17.3617    21.3216    17.9939 CH_sp2        1 RES
      95 _CH         18.5147    20.9762    17.2789 CH_sp2        1 RES
      96 _CH         18.8220    19.6289    17.0547 CH_sp2        1 RES
      97 _CH         16.5769    14.2625    32.6268 CH_sp2        1 RES
      98 _CH         15.6366    13.2927    32.9947 CH_sp2        1 RES
      99 _CH         14.6281    12.9199    32.0980 CH_sp2        1 RES
     100 _CH         14.5599    13.5169    30.8335 CH_sp2        1 RES
     101 _CH         15.5002    14.4867    30.4657 CH_sp2        1 RES
     102 _CH         16.5087    14.8595    31.3623 CH_sp2        1 RES
     103 _CH         16.0770    10.6543    16.3743 CH_sp2        1 RES
     104 _CH         16.5693    10.5577    15.0673 CH_sp2        1 RES
     105 _CH         16.7649     9.3000    14.4842 CH_sp2        1 RES
     106 _CH         16.4682     8.1390    15.2081 CH_sp2        1 RES
     107 _CH         15.9759     8.2357    16.5151 CH_sp2        1 RES
     108 _CH         15.7803     9.4933    17.0982 CH_sp2        1 RES
     109 _CH         15.6998    24.3837    18.6781 CH_sp2        1 RES
     110 _CH         16.9659    23.8077    18.5197 CH_sp2        1 RES
     111 _CH         17.4967    22.9956    19.5290 CH_sp2        1 RES
     112 _CH         16.7615    22.7596    20.6968 CH_sp2        1 RES
     113 _CH         15.4953    23.3356    20.8552 CH_sp2        1 RES
     114 _CH         14.9645    24.1477    19.8459 CH_sp2        1 RES
     115 _CH         25.2441     7.6897    23.6854 CH_sp2        1 RES
     116 _CH         26.1412     6.6315    23.4974 CH_sp2        1 RES
     117 _CH         25.6750     5.3115    23.4899 CH_sp2        1 RES
     118 _CH         24.3116     5.0496    23.6704 CH_sp2        1 RES
     119 _CH         23.4144     6.1078    23.8584 CH_sp2        1 RES
     120 _CH         23.8807     7.4279    23.8659 CH_sp2        1 RES
     121 _CH         27.2256    38.8549    19.4769 CH_sp2        1 RES
     122 _CH         28.4781    39.4786    19.5222 CH_sp2        1 RES
     123 _CH         28.8912    40.1356    20.6874 CH_sp2        1 RES
     124 _CH         28.0517    40.1689    21.8073 CH_sp2        1 RES
     125 _CH         26.7991    39.5452    21.7619 CH_sp2        1 RES
     126 _CH         26.3861    38.8882    20.5967 CH_sp2        1 RES
     127 _CH         12.8343     6.0890     7.0538 CH_sp2        1 RES
     128 _CH         13.0066     7.0166     8.0881 CH_sp2        1 RES
     129 _CH         12.6161     8.3486     7.9061 CH_sp2        1 RES
     130 _CH         12.0532     8.7531     6.6897 CH_sp2        1 RES
     131 _CH         11.8808     7.8255     5.6554 CH_sp2        1 RES
     132 _CH         12.2713     6.4935     5.8374 CH_sp2        1 RES
     133 _CH         12.5500    34.3853    30.0450 CH_sp2        1 RES
     134 _CH         13.8837    34.0065    29.8504 CH_sp2        1 RES
     135 _CH         14.8658    34.9829    29.6451 CH_sp2        1 RES
     136 _CH         14.5144    36.3380    29.6344 CH_sp2        1 RES
     137 _CH         13.1807    36.7168    29.8290 CH_sp2        1 RES
     138 _CH         12.1985    35.7405    30.0343 CH_sp2        1 RES
     139 _CH         33.1021    31.4037    32.5815 CH_sp2        1 RES
     140 _CH         31.8656    31.1235    33.1751 CH_sp2        1 RES
     141 _CH         31.0972    30.0466    32.7170 CH_sp2        1 RES
     142 _CH         31.5653    29.2499    31.6652 CH_sp2        1 RES
     143 _CH         32.8019    29.5301    31.0716 CH_sp2        1 RES
     144 _CH         33.5703    30.6070    31.5297 CH_sp2        1 RES
     145 _CH         38.3927    24.4685    14.1278 CH_sp2        1 RES
     146 _CH         37.2486    25.1042    14.6248 CH_sp2        1 RES
     147 _CH         37.1622    26.5015    14.6107 CH_sp2        1 RES
     148 _CH         38.2199    27.2631    14.0997 CH_sp2        1 RES
     149 _CH         39.3641    26.6274    13.6028 CH_sp2        1 RES
     150 _CH         39.4504    25.2302    13.6168 CH_sp2        1 RES
     151 _CH         24.1238     7.1025    21.4009 CH_sp2        1 RES
     152 _CH         23.4354     8.2831    21.7046 CH_sp2        1 RES
     153 _CH         23.3760     9.3201    20.7659 CH_sp2        1 RES
     154 _CH         24.0050     9.1764    19.5234 CH_sp2        1 RES
     155 _CH         24.6933     7.9958    19.2197 CH_sp2        1 RES
     156 _CH         24.7527     6.9588    20.1584 CH_sp2        1 RES
     157 _CH          6.1988     5.7343    36.3504 CH_sp2        1 RES
     158 _CH          6.2789     4.3934    35.9561 CH_sp2        1 RES
     159 _CH          6.2940     4.0635    34.5956 CH_sp2        1 RES
     160 _CH          6.2290     5.0745    33.6294 CH_sp2        1 RES
     161 _CH          6.1489     6.4155    34.0237 CH_sp2        1 RES
     162 _CH          6.1338     6.7454    35.3841 CH_sp2        1 RES
     163 _CH         23.4248    32.6183    28.3975 CH_sp2        1 RES
     164 _CH         23.9437    31.4116    27.9131 CH_sp2        1 RES
     165 _CH         25.2078    30.9763    28.3284 CH_sp2        1 RES
     166 _CH         25.9530    31.7477    29.2282 CH_sp2        1 RES
     167 _CH         25.4341    32.9544    29.7126 CH_sp2        1 RES
     168 _CH         24.1700    33.3897    29.2973 CH_sp2        1 RES
     169 _CH          7.4106     8.7223    22.2848 CH_sp2        1 RES
     170 _CH          6.1670     8.1024    22.4555 CH_sp2        1 RES
     171 _CH          6.0842     6.7066    22.5249 CH_sp2        1 RES
     172 _CH          7.2450     5.9306    22.4237 CH_sp2        1 RES
     173 _CH          8.4887     6.5505    22.2530 CH_sp2        1 RES
     174 _CH          8.5715     7.9463    22.1835 CH_sp2        1 RES
     175 _CH          7.4353    22.5291    17.3137 CH_sp2        1 RES
     176 _CH          7.5675    21.3881    16.5132 CH_sp2        1 RES
     177 _CH          6.4491    20.5916    16.2395 CH_sp2        1 RES
     178 _CH          5.1986    20.9361    16.7663 CH_sp2        1 RES
     179 _CH          5.0664    22.0770    17.5667 CH_sp2        1 RES
     180 _CH          6.1847    22.8735    17.8404 CH_sp2        1 RES
     181 _CH         14.8305    39.2170    23.4109 CH_sp2        1 RES
     182 _CH         13.8754    39.6617    24.3329 CH_sp2        1 RES
     183 _CH         13.2839    38.7549    25.2204 CH_sp2        1 RES
     184 _CH         13.6475    37.4034    25.1861 CH_sp2        1 RES
     185 _CH         14.6026    36.9587    24.2642 CH_sp2        1 RES
     186 _CH         15.1941    37.8655    23.3766 CH_sp2        1 RES
     187 _CH         36.5080     2.7583     9.4655 CH_sp2        1 RES
     188 _CH         37.6185     2.0698     8.9628 CH_sp2        1 RES
     189 _CH         38.7098     2.7812     8.4500 CH_sp2        1 RES
     190 _CH         38.6905     4.1811     8.4398 CH_sp2        1 RES
     191 _CH         37.5800     4.8695     8.9425 CH_sp2        1 RES
     192 _CH         36.4887     4.1581     9.4554 CH_sp2        1 RES
     193 _CH         13.9011    22.8505    30.4699 CH_sp2        1 RES
     194 _CH         12.6931    22.7616    29.7679 CH_sp2        1 RES
     195 _CH         11.7849    21.7382    30.0643 CH_sp2        1 RES
     196 _CH         12.0847    20.8037    31.0627 CH_sp2        1 RES
     197 _CH         13.2927    20.8926    31.7647 CH_sp2        1 RES
     198 _CH         14.2009    21.9160    31.4683 CH_sp2        1 RES
     199 _CH         14.2421    11.0942    29.0406 CH_sp2        1 RES
     200 _CH         14.8731    12.2689    28.6140 CH_sp2        1 RES
     201 _CH         16.2554    12.2802    28.3925 CH_sp2        1 RES
     202 _CH         17.0067    11.1168    28.5975 CH_sp2        1 RES
     203 _CH         16.3757     9.9421    29.0242 CH_sp2        1 RES
     204 _CH         14.9934     9.9308    29.2457 CH_sp2        1 RES
     205 _CH         28.0245     2.8921    21.4455 CH_sp2        1 RES
     206 _CH         29.2047     3.3496    20.8473 CH_sp2        1 RES
     207 _CH         29.6057     4.6801    21.0178 CH_sp2        1 RES
     208 _CH         28.8266     5.5530    21.7866 CH_sp2        1 RES
     209 _CH         27.6465     5.0954    22.3848 CH_sp2        1 RES
     210 _CH         27.2454     3.7650    22.2143 CH_sp2        1 RES
     211 _CH          5.3125    23.4616     3.3777 CH_sp2        1 RES
     212 _CH          5.4970    23.9727     4.6680 CH_sp2        1 RES
     213 _CH          4.4132    24.0533     5.5505 CH_sp2        1 RES
     214 _CH          3.1449    23.6229     5.1427 CH_sp2        1 RES
     215 _CH          2.9604    23.1119     3.8525 CH_sp2        1 RES
     216 _CH          4.0443    23.0312     2.9699 CH_sp2        1 RES
     217 _CH         31.2953    20.4738    29.7278 CH_sp2        1 RES
     218 _CH         30.5885    21.5110    30.3480 CH_sp2        1 RES
     219 _CH         30.6704    21.6822    31.7350 CH_sp2        1 RES
     220 _CH         31.4590    20.8162    32.5019 CH_sp2        1 RES
     221 _CH         32.1658    19.7790    31.8817 CH_sp2        1 RES
     222 _CH         32.0840    19.6078    30.4946 CH_sp2        1 RES
     223 _CH          1.9991    37.3321    34.3635 CH_sp2        1 RES
     224 _CH          2.9881    36.6746    35.1049 CH_sp2        1 RES
     225 _CH          4.3390    36.8559    34.7854 CH_sp2        1 RES
     226 _CH          4.7010    37.6947    33.7245 CH_sp2        1 RES
     227 _CH          3.7120    38.3522    32.9832 CH_sp2        1 RES
     228 _CH          2.3611    38.1709    33.3027 CH_sp2        1 RES
     229 _CH         17.5393    10.6103    38.6778 CH_sp2        1 RES
     230 _CH         18.5515     9.7842    38.1746 CH_sp2        1 RES
     231 _CH         18.2233     8.5684    37.5631 CH_sp2        1 RES
     232 _CH         16.8831     8.1786    37.4547 CH_sp2        1 RES
     233 _CH         15.8709     9.0047    37.9579 CH_sp2        1 RES
     234 _CH         16.1991    10.2205    38.5694 CH_sp2        1 RES
     235 _CH         31.5833    30.1482    12.3555 CH_sp2        1 RES
     236 _CH         32.8811    29.7728    12.7229 CH_sp2        1 RES
     237 _CH         33.9815    30.4853    12.2315 CH_sp2        1 RES
     238 _CH         33.7841    31.5733    11.3728 CH_sp2        1 RES
     239 _CH         32.4864    31.9487    11.0054 CH_sp2        1 RES
     240 _CH         31.3860    31.2361    11.4968 CH_sp2        1 RES
     241 _CH         19.3298    12.1215    36.3002 CH_sp2        1 RES
     242 _CH         18.1423    12.2896    37.0225 CH_sp2        1 RES
     243 _CH         17.7673    13.5634    37.4662 CH_sp2        1 RES
     244 _CH         18.5797    14.6690    37.1877 CH_sp2        1 RES
     245 _CH         19.7671    14.5008    36.4654 CH_sp2        1 RES
     246 _CH         20.1422    13.2271    36.0217 CH_sp2        1 RES
     247 _CH          8.2793    15.2027    19.0980 CH_sp2        1 RES
     248 _CH          7.7223    16.4827    18.9912 CH_sp2        1 RES
     249 _CH          8.2254    17.3888    18.0500 CH_sp2        1 RES
     250 _CH          9.2856    17.0149    17.2156 CH_sp2        1 RES
     251 _CH          9.8426    15.7349    17.3224 CH_sp2        1 RES
     252 _CH          9.3395    14.8288    18.2635 CH_sp2        1 RES
     253 _CH         12.3291    29.0642    22.8202 CH_sp2        1 RES
     254 _CH         12.1021    30.4454    22.8477 CH_sp2        1 RES
     255 _CH         13.1842    31.3333    22.8196 CH_sp2        1 RES
     256 _CH         14.4932    30.8399    22.7640 CH_sp2        1 RES
     257 _CH         14.7202    29.4587    22.7365 CH_sp2        1 RES
     258 _CH         13.6381    28.5708    22.7646 CH_sp2        1 RES
     259 _CH         33.0835    26.1553     9.9605 CH_sp2        1 RES
     260 _CH         31.7042    26.3591     9.8347 CH_sp2        1 RES
     261 _CH         31.0413    25.9606     8.6677 CH_sp2        1 RES
     262 _CH         31.7578    25.3584     7.6266 CH_sp2        1 RES
     263 _CH         33.1371    25.1546     7.7524 CH_sp2        1 RES
     264 _CH         33.8000    25.5531     8.9194 CH_sp2        1 RES
     265 _CH          8.4889    21.4789    28.8249 CH_sp2        1 RES
     266 _CH          9.8435    21.8290    28.7738 CH_sp2        1 RES
     267 _CH         10.2354    23.1489    29.0276 CH_sp2        1 RES
     268 _CH          9.2728    24.1186    29.3325 CH_sp2        1 RES
     269 _CH          7.9182    23.7685    29.3836 CH_sp2        1 RES
     270 _CH          7.5263    22.4487    29.1298 CH_sp2        1 RES
     271 _CH         17.6646     8.5816    20.3871 CH_sp2        1 RES
     272 _CH         16.3686     8.0536    20.4281 CH_sp2        1 RES
     273 _CH         15.2620     8.9081    20.3551 CH_sp2        1 RES
     274 _CH         15.4514    10.2905    20.2412 CH_sp2        1 RES
     275 _CH         16.7474    10.8185    20.2002 CH_sp2        1 RES
     276 _CH         17.8540     9.9641    20.2732 CH_sp2        1 RES
     277 _CH         26.0888    36.4492    33.5631 CH_sp2        1 RES
     278 _CH         27.1069    37.3702    33.2888 CH_sp2        1 RES
     279 _CH         28.4342    36.9368    33.1868 CH_sp2        1 RES
     280 _CH         28.7434    35.5823    33.3591 CH_sp2        1 RES
     281 _CH         27.7254    34.6612    33.6334 CH_sp2        1 RES
     282 _CH         26.3981    35.0947    33.7354 CH_sp2        1 RES
     283 _CH          8.6055    20.2192    30.8374 CH_sp2        1 RES
     284 _CH          9.1824    21.3093    31.4999 CH_sp2        1 RES
     285 _CH          8.4052    22.4324    31.8079 CH_sp2        1 RES
     286 _CH          7.0513    22.4653    31.4534 CH_sp2        1 RES
     287 _CH          6.4744    21.3752    30.7910 CH_sp2        1 RES
     288 _CH          7.2515    20.2522    30.4830 CH_sp2        1 RES
     289 _CH         17.6487    19.9200    26.1013 CH_sp2        1 RES
     290 _CH         16.5632    19.0857    25.8084 CH_sp2        1 RES
     291 _CH         15.3076    19.3477    26.3696 CH_sp2        1 RES
     292 _CH         15.1375    20.4439    27.2237 CH_sp2        1 RES
     293 _CH         16.2230    21.2781    27.5165 CH_sp2        1 RES
     294 _CH         17.4785    21.0162    26.9553 CH_sp2        1 RES
     295 _CH         38.9891    27.5152    11.2147 CH_sp2        1 RES
     296 _CH         37.8434    26.8275    10.7967 CH_sp2        1 RES
     297 _CH         37.8520    25.4292    10.7292 CH_sp2        1 RES
     298 _CH         39.0061    24.7185    11.0796 CH_sp2        1 RES
     299 _CH         40.1518    25.4061    11.4976 CH_sp2        1 RES
     300 _CH         40.1432    26.8045    11.5652 CH_sp2        1 RES
     301 _CH         29.0081    25.7755     6.7568 CH_sp2        1 RES
     302 _CH         29.1835    27.0330     6.1670 CH_sp2        1 RES
     303 _CH         28.2132    28.0277     6.3377 CH_sp2        1 RES
     304 _CH         27.0676    27.7649     7.0983 CH_sp2        1 RES
     305 _CH         26.8922    26.5074     7.6881 CH_sp2        1 RES
     306 _CH         27.8624    25.5127     7.5174 CH_sp2        1 RES
     307 _CH         19.5376     6.8864    20.5924 CH_sp2        1 RES
     308 _CH         18.4912     6.5304    21.4516 CH_sp2        1 RES
     309 _CH         17.6586     5.4515    21.1310 CH_sp2        1 RES
     310 _CH         17.8724     4.7287    19.9513 CH_sp2        1 RES
     311 _CH         18.9188     5.0847    19.0921 CH_sp2        1 RES
     312 _CH         19.7514     6.1636    19.4127 CH_sp2        1 RES
     313 _CH         22.8624     7.5077    18.1029 CH_sp2        1 RES
     314 _CH         22.0815     8.5934    18.5170 CH_sp2        1 RES
     315 _CH         22.0077     9.7452    17.7246 CH_sp2        1 RES
     316 _CH         22.7148     9.8114    16.5182 CH_sp2        1 RES
     317 _CH         23.4958     8.7257    16.1041 CH_sp2        1 RES
     318 _CH         23.5695     7.5739    16.8964 CH_sp2        1 RES
     319 _CH         18.7691    34.0352    14.6174 CH_sp2        1 RES
     320 _CH         17.8659    34.5923    15.5306 CH_sp2        1 RES
     321 _CH         16.9175    33.7789    16.1621 CH_sp2        1 RES
     322 _CH         16.8722    32.4083    15.8804 CH_sp2        1 RES
     323 _CH         17.7753    31.8511    14.9671 CH_sp2        1 RES
     324 _CH         18.7237    32.6646    14.3357 CH_sp2        1 RES
     325 _CH          8.0942    21.3655     8.1343 CH_sp2        1 RES
     326 _CH          8.3961    20.0258     8.4063 CH_sp2        1 RES
     327 _CH          9.6845    19.6691     8.8221 CH_sp2        1 RES
     328 _CH         10.6709    20.6521     8.9659 CH_sp2        1 RES
     329 _CH         10.3689    21.9918     8.6939 CH_sp2        1 RES
     330 _CH          9.0806    22.3486     8.2781 CH_sp2        1 RES
     331 _CH         30.4547    10.2960    35.3433 CH_sp2        1 RES
     332 _CH         31.7470    10.7779    35.1032 CH_sp2        1 RES
     333 _CH         32.0902    12.0808    35.4836 CH_sp2        1 RES
     334 _CH         31.1410    12.9018    36.1040 CH_sp2        1 RES
     335 _CH         29.8486    12.4200    36.3441 CH_sp2        1 RES
     336 _CH         29.5055    11.1171    35.9638 CH_sp2        1 RES
     337 _CH         15.3947     2.9601    39.6834 CH_sp2        1 RES
     338 _CH         14.0884     2.5899    39.3420 CH_sp2        1 RES
     339 _CH         13.7351     2.4300    37.9968 CH_sp2        1 RES
     340 _CH         14.6881     2.6402    36.9930 CH_sp2        1 RES
     341 _CH         15.9944     3.0104    37.3344 CH_sp2        1 RES
     342 _CH         16.3477     3.1704    38.6796 CH_sp2        1 RES
     343 _CH         27.2040    32.3661    23.5261 CH_sp2        1 RES
     344 _CH         27.7424    33.5373    24.0725 CH_sp2        1 RES
     345 _CH         28.5280    33.4731    25.2295 CH_sp2        1 RES
     346 _CH         28.7752    32.2378    25.8402 CH_sp2        1 RES
     347 _CH         28.2367    31.0667    25.2938 CH_sp2        1 RES
     348 _CH         27.4511    31.1308    24.1368 CH_sp2        1 RES
     349 _CH         39.6654    11.5925     2.6676 CH_sp2        1 RES
     350 _CH         38.8333    12.5054     2.0086 CH_sp2        1 RES
     351 _CH         37.4443    12.4256     2.1647 CH_sp2        1 RES
     352 _CH         36.8875    11.4329     2.9798 CH_sp2        1 RES
     353 _CH         37.7195    10.5200     3.6388 CH_sp2        1 RES
     354 _CH         39.1085    10.5998     3.4827 CH_sp2        1 RES
     355 _CH         24.8255    30.2202    13.2739 CH_sp2        1 RES
     356 _CH         26.0805    29.5999    13.2672 CH_sp2        1 RES
     357 _CH         26.1708    28.2028    13.2672 CH_sp2        1 RES
     358 _CH         25.0061    27.4261    13.2740 CH_sp2        1 RES
     359 _CH         23.7510    28.0464    13.2807 CH_sp2        1 RES
     360 _CH         23.6607    29.4435    13.2807 CH_sp2        1 RES
     361 _CH         13.5820    40.1626     2.4021 CH_sp2        1 RES
     362 _CH         12.6410    39.2173     2.8274 CH_sp2        1 RES
     363 _CH         13.0545    37.9264     3.1775 CH_sp2        1 RES
     364 _CH         14.4090    37.5808     3.1023 CH_sp2        1 RES
     365 _CH         15.3501    38.5260     2.6770 CH_sp2        1 RES
     366 _CH         14.9366    39.8169     2.3269 CH_sp2        1 RES
     367 _CH         21.7894    33.8045    29.4317 CH_sp2        1 RES
     368 _CH         22.5615    34.9568    29.6222 CH_sp2        1 RES
     369 _CH         21.9426    36.2107    29.6902 CH_sp2        1 RES
     370 _CH         20.5517    36.3124    29.5678 CH_sp2        1 RES
     371 _CH         19.7796    35.1602    29.3774 CH_sp2        1 RES
     372 _CH         20.3985    33.9062    29.3093 CH_sp2        1 RES
     373 _CH         10.8333    27.7824     8.6815 CH_sp2        1 RES
     374 _CH         10.4225    27.1038     9.8351 CH_sp2        1 RES
     375 _CH          9.3651    27.6055    10.6033 CH_sp2        1 RES
     376 _CH          8.7185    28.7859    10.2179 CH_sp2        1 RES
     377 _CH          9.1292    29.4646     9.0644 CH_sp2        1 RES
     378 _CH         10.1866    28.9628     8.2962 CH_sp2        1 RES
     379 _CH         22.7662    13.9876    13.0821 CH_sp2        1 RES
     380 _CH         23.1729    14.0630    14.4196 CH_sp2        1 RES
     381 _CH         22.2161    14.1239    15.4398 CH_sp2        1 RES
     382 _CH         20.8526    14.1094    15.1225 CH_sp2        1 RES
     383 _CH         20.4459    14.0341    13.7850 CH_sp2        1 RES
     384 _CH         21.4027    13.9732    12.7648 CH_sp2        1 RES
     385 _CH         28.7512    14.1257    29.9424 CH_sp2        1 RES
     386 _CH         27.6116    14.2451    29.1380 CH_sp2        1 RES
     387 _CH         26.7758    13.1395    28.9397 CH_sp2        1 RES
     388 _CH         27.0797    11.9146    29.5457 CH_sp2        1 RES
     389 _CH         28.2193    11.7953    30.3501 CH_sp2        1 RES
     390 _CH         29.0550    12.9008    30.5485 CH_sp2        1 RES
     391 _CH         17.3066    36.5657     5.4563 CH_sp2        1 RES
     392 _CH         15.9266    36.3790     5.6003 CH_sp2        1 RES
     393 _CH         15.0695    37.4856     5.6278 CH_sp2        1 RES
     394 _CH         15.5925    38.7791     5.5112 CH_sp2        1 RES
     395 _CH         16.9725    38.9658     5.3672 CH_sp2        1 RES
     396 _CH         17.8295    37.8592     5.3397 CH_sp2        1 RES
     397 _CH         29.9137     8.9960    28.3952 CH_sp2        1 RES
     398 _CH         28.9594     9.3847    27.4475 CH_sp2        1 RES
     399 _CH         28.8706    10.7250    27.0527 CH_sp2        1 RES
     400 _CH         29.7361    11.6764    27.6055 CH_sp2        1 RES
     401 _CH         30.6904    11.2876    28.5532 CH_sp2        1 RES
     402 _CH         30.7792     9.9474    28.9481 CH_sp2        1 RES
     403 _CH         15.6286    15.9082     5.2151 CH_sp2        1 RES
     404 _CH         16.8190    16.6362     5.3286 CH_sp2        1 RES
     405 _CH         16.7872    18.0358     5.3188 CH_sp2        1 RES
     406 _CH         15.5650    18.7074     5.1955 CH_sp2        1 RES
     407 _CH         14.3746    17.9794     5.0820 CH_sp2        1 RES
     408 _CH         14.4064    16.5798     5.0918 CH_sp2        1 RES
     409 _CH          3.7824    23.7123    32.5873 CH_sp2        1 RES
     410 _CH          3.2466    23.2361    33.7899 CH_sp2        1 RES
     411 _CH          4.0969    22.7617    34.7959 CH_sp2        1 RES
     412 _CH          5.4830    22.7634    34.5992 CH_sp2        1 RES
     413 _CH          6.0188    23.2396    33.3966 CH_sp2        1 RES
     414 _CH          5.1685    23.7140    32.3907 CH_sp2        1 RES
     415 _CH         19.1540    17.8754    25.7270 CH_sp2        1 RES
     416 _CH         19.4003    18.2056    24.3890 CH_sp2        1 RES
     417 _CH         20.3238    19.2096    24.0743 CH_sp2        1 RES
     418 _CH         21.0010    19.8835    25.0977 CH_sp2        1 RES
     419 _CH         20.7548    19.5533    26.4357 CH_sp2        1 RES
     420 _CH         19.8313    18.5492    26.7504 CH_sp2        1 RES
     421 _CH         25.7363    28.2458     4.8820 CH_sp2        1 RES
     422 _CH         24.6522    27.4305     4.5355 CH_sp2        1 RES
     423 _CH         23.3501    27.9431     4.5752 CH_sp2        1 RES
     424 _CH         23.1320    29.2710     4.9614 CH_sp2        1 RES
     425 _CH         24.2161    30.0863     5.3078 CH_sp2        1 RES
     426 _CH         25.5183    29.5737     5.2681 CH_sp2        1 RES
     427 _CH          9.6592    11.3525    13.6036 CH_sp2        1 RES
     428 _CH          9.4346    10.4298    12.5750 CH_sp2        1 RES
     429 _CH          9.7699     9.0828    12.7573 CH_sp2        1 RES
     430 _CH         10.3296     8.6586    13.9684 CH_sp2        1 RES
     431 _CH         10.5542     9.5813    14.9971 CH_sp2        1 RES
     432 _CH         10.2190    10.9283    14.8147 CH_sp2        1 RES
     433 _CH         36.3458    32.7615    35.5048 CH_sp2        1 RES
     434 _CH         37.4513    33.5911    35.7278 CH_sp2        1 RES
     435 _CH         37.2618    34.9076    36.1646 CH_sp2        1 RES
     436 _CH         35.9668    35.3946    36.3786 CH_sp2        1 RES
     437 _CH         34.8613    34.5650    36.1556 CH_sp2        1 RES
     438 _CH         35.0508    33.2485    35.7188 CH_sp2        1 RES
     439 _CH         19.5782    25.5465    27.4790 CH_sp2        1 RES
     440 _CH         20.8074    24.8893    27.6095 CH_sp2        1 RES
     441 _CH         20.8582    23.6018    28.1570 CH_sp2        1 RES
     442 _CH         19.6797    22.9714    28.5740 CH_sp2        1 RES
     443 _CH         18.4505    23.6286    28.4434 CH_sp2        1 RES
     444 _CH         18.3997    24.9161    27.8959 CH_sp2        1 RES
     445 _CH          9.8543    24.6867    24.6398 CH_sp2        1 RES
     446 _CH          9.9118    25.2569    25.9171 CH_sp2        1 RES
     447 _CH          9.6319    24.4765    27.0453 CH_sp2        1 RES
     448 _CH          9.2944    23.1260    26.8960 CH_sp2        1 RES
     449 _CH          9.2370    22.5559    25.6187 CH_sp2        1 RES
     450 _CH          9.5169    23.3362    24.4906 CH_sp2        1 RES
     451 _CH         30.2930    19.5666    39.1805 CH_sp2        1 RES
     452 _CH         29.5619    19.8441    38.0192 CH_sp2        1 RES
     453 _CH         29.4358    21.1641    37.5702 CH_sp2        1 RES
     454 _CH         30.0407    22.2066    38.2824 CH_sp2        1 RES
     455 _CH         30.7718    21.9291    39.4436 CH_sp2        1 RES
     456 _CH         30.8979    20.6091    39.8927 CH_sp2        1 RES
     457 _CH          3.4771    29.4757    17.6987 CH_sp2        1 RES
     458 _CH          2.2196    29.4490    17.0840 CH_sp2        1 RES
     459 _CH          2.0020    28.6285    15.9706 CH_sp2        1 RES
     460 _CH          3.0419    27.8349    15.4720 CH_sp2        1 RES
     461 _CH          4.2995    27.8616    16.0867 CH_sp2        1 RES
     462 _CH          4.5171    28.6821    17.2001 CH_sp2        1 RES
     463 _CH         26.3284    28.5080    18.4813 CH_sp2        1 RES
     464 _CH         27.3618    28.5610    17.5383 CH_sp2        1 RES
     465 _CH         28.4247    29.4551    17.7141 CH_sp2        1 RES
     466 _CH         28.4541    30.2962    18.8329 CH_sp2        1 RES
     467 _CH         27.4207    30.2432    19.7759 CH_sp2        1 RES
     468 _CH         26.3578    29.3491    19.6001 CH_sp2        1 RES
     469 _CH         23.3789    10.2700     6.9977 CH_sp2        1 RES
     470 _CH         22.0998    10.8299     7.0990 CH_sp2        1 RES
     471 _CH         21.9529    12.1980     7.3576 CH_sp2        1 RES
     472 _CH         23.0853    13.0061     7.5148 CH_sp2        1 RES
     473 _CH         24.3644    12.4462     7.4135 CH_sp2        1 RES
     474 _CH         24.5112    11.0782     7.1549 CH_sp2        1 RES
     475 _CH         10.9132    22.4733    15.6717 CH_sp2        1 RES
     476 _CH          9.7227    21.9165    16.1540 CH_sp2        1 RES
     477 _CH          9.7333    20.6493    16.7492 CH_sp2        1 RES
     478 _CH         10.9344    19.9390    16.8621 CH_sp2        1 RES
     479 _CH         12.1249    20.4959    16.3798 CH_sp2        1 RES
     480 _CH         12.1143    21.7630    15.7846 CH_sp2        1 RES
     481 _CH          4.2470    16.7006     4.1450 CH_sp2        1 RES
     482 _CH          5.0279    16.8312     5.2996 CH_sp2        1 RES
     483 _CH          5.3488    18.1036     5.7873 CH_sp2        1 RES
     484 _CH          4.8888    19.2454     5.1205 CH_sp2        1 RES
     485 _CH          4.1079    19.1148     3.9659 CH_sp2        1 RES
     486 _CH          3.7870    17.8424     3.4782 CH_sp2        1 RES
     487 _CH         38.3064     5.6500    25.1287 CH_sp2        1 RES
     488 _CH         37.5438     5.9503    26.2637 CH_sp2        1 RES
     489 _CH         38.0624     6.7957    27.2519 CH_sp2        1 RES
     490 _CH         39.3434     7.3409    27.1049 CH_sp2        1 RES
     491 _CH         40.1060     7.0407    25.9698 CH_sp2        1 RES
     492 _CH         39.5874     6.1953    24.9817 CH_sp2        1 RES
     493 _CH          4.6049    15.0833    17.8666 CH_sp2        1 RES
     494 _CH          3.7633    15.8146    17.0199 CH_sp2        1 RES
     495 _CH          3.6943    17.2082    17.1349 CH_sp2        1 RES
     496 _CH          4.4668    17.8704    18.0965 CH_sp2        1 RES
     497 _CH          5.3084    17.1390    18.9431 CH_sp2        1 RES
     498 _CH          5.3774    15.7455    18.8282 CH_sp2        1 RES
     499 _CH         32.6379    34.0338     5.5434 CH_sp2        1 RES
     500 _CH         33.6954    34.3373     6.4091 CH_sp2        1 RES
     501 _CH         33.7470    33.7562     7.6818 CH_sp2        1 RES
     502 _CH         32.7411    32.8715     8.0887 CH_sp2        1 RES
     503 _CH         31.6836    32.5680     7.2229 CH_sp2        1 RES
     504 _CH         31.6320    33.1491     5.9502 CH_sp2        1 RES
     505 _CH          6.3536    14.8158    27.4229 CH_sp2        1 RES
     506 _CH          7.6771    14.9193    26.9782 CH_sp2        1 RES
     507 _CH          8.2672    16.1794    26.8238 CH_sp2        1 RES
     508 _CH          7.5338    17.3361    27.1141 CH_sp2        1 RES
     509 _CH          6.2103    17.2326    27.5588 CH_sp2        1 RES
     510 _CH          5.6202    15.9725    27.7132 CH_sp2        1 RES
     511 _CH         18.3951    24.7233    13.6002 CH_sp2        1 RES
     512 _CH         18.2279    24.0973    14.8412 CH_sp2        1 RES
     513 _CH         17.3875    22.9835    14.9559 CH_sp2        1 RES
     514 _CH         16.7142    22.4957    13.8295 CH_sp2        1 RES
     515 _CH         16.8814    23.1217    12.5885 CH_sp2        1 RES
     516 _CH         17.7218    24.2354    12.4738 CH_sp2        1 RES
     517 _CH         14.6094    25.1005     7.5816 CH_sp2        1 RES
     518 _CH         13.3987    25.4026     8.2163 CH_sp2        1 RES
     519 _CH         13.2871    25.2790     9.6064 CH_sp2        1 RES
     520 _CH         14.3862    24.8533    10.3618 CH_sp2        1 RES
     521 _CH         15.5970    24.5512     9.7271 CH_sp2        1 RES
     522 _CH         15.7086    24.6748     8.3371 CH_sp2        1 RES
     523 _CH          4.6297    24.8711    25.3143 CH_sp2        1 RES
     524 _CH          4.3388    26.1517    25.7996 CH_sp2        1 RES
     525 _CH          5.3693    27.0810    25.9847 CH_sp2        1 RES
     526 _CH          6.6909    26.7298    25.6846 CH_sp2        1 RES
     527 _CH          6.9819    25.4492    25.1993 CH_sp2        1 RES
     528 _CH          5.9513    24.5199    25.0142 CH_sp2        1 RES
     529 _CH         38.2474    13.8094     3.6667 CH_sp2        1 RES
     530 _CH         37.4581    14.8780     4.1083 CH_sp2        1 RES
     531 _CH         38.0239    16.1493     4.2622 CH_sp2        1 RES
     532 _CH         39.3789    16.3520     3.9745 CH_sp2        1 RES
     533 _CH         40.1682    15.2833     3.5329 CH_sp2        1 RES
     534 _CH         39.6024    14.0120     3.3790 CH_sp2        1 RES
     535 _CH         35.1700    12.1863    12.5359 CH_sp2        1 RES
     536 _CH         34.1527    11.2262    12.5936 CH_sp2        1 RES
     537 _CH         33.4912    10.9790    13.8024 CH_sp2        1 RES
     538 _CH         33.8469    11.6920    14.9536 CH_sp2        1 RES
     539 _CH         34.8642    12.6521    14.8959 CH_sp2        1 RES
     540 _CH         35.5257    12.8993    13.6871 CH_sp2        1 RES
     541 _CH          7.4817    34.5571     8.8546 CH_sp2        1 RES
     542 _CH          6.8338    35.7787     9.0730 CH_sp2        1 RES
     543 _CH          5.4375    35.8529     9.0030 CH_sp2        1 RES
     544 _CH          4.6891    34.7053     8.7147 CH_sp2        1 RES
     545 _CH          5.3371    33.4836     8.4963 CH_sp2        1 RES
     546 _CH          6.7333    33.4095     8.5663 CH_sp2        1 RES
     547 _CH         24.6276     4.8666    26.3979 CH_sp2        1 RES
     548 _CH         25.6279     4.3378    25.5734 CH_sp2        1 RES
     549 _CH         26.3875     3.2448    26.0073 CH_sp2        1 RES
     550 _CH         26.1470     2.6806    27.2658 CH_sp2        1 RES
     551 _CH         25.1467     3.2094    28.0903 CH_sp2        1 RES
     552 _CH         24.3870     4.3024    27.6564 CH_sp2        1 RES
     553 _CH         38.1723     4.9507     5.9672 CH_sp2        1 RES
     554 _CH         37.0781     5.3904     6.7217 CH_sp2        1 RES
     555 _CH         37.1732     6.5686     7.4720 CH_sp2        1 RES
     556 _CH         38.3627     7.3069     7.4678 CH_sp2        1 RES
     557 _CH         39.4569     6.8672     6.7134 CH_sp2        1 RES
     558 _CH         39.3618     5.6891     5.9631 CH_sp2        1 RES
     559 _CH         13.1348    23.1594    25.4854 CH_sp2        1 RES
     560 _CH         14.4208    23.4786    25.9375 CH_sp2        1 RES
     561 _CH         14.8560    23.0240    27.1881 CH_sp2        1 RES
     562 _CH         14.0052    22.2503    27.9866 CH_sp2        1 RES
     563 _CH         12.7193    21.9311    27.5345 CH_sp2        1 RES
     564 _CH         12.2840    22.3856    26.2839 CH_sp2        1 RES
     565 _CH          7.0287    20.5024    34.2417 CH_sp2        1 RES
     566 _CH          5.6475    20.6208    34.0463 CH_sp2        1 RES
     567 _CH          5.0271    19.9307    32.9981 CH_sp2        1 RES
     568 _CH          5.7879    19.1221    32.1452 CH_sp2        1 RES
     569 _CH          7.1691    19.0037    32.3406 CH_sp2        1 RES
     570 _CH          7.7896    19.6938    33.3888 CH_sp2        1 RES
     571 _CH          8.4016    14.8085     4.3270 CH_sp2        1 RES
     572 _CH          9.4528    15.6892     4.0453 CH_sp2        1 RES
     573 _CH          9.4771    16.9604     4.6315 CH_sp2        1 RES
     574 _CH          8.4502    17.3508     5.4993 CH_sp2        1 RES
     575 _CH          7.3991    16.4701     5.7810 CH_sp2        1 RES
     576 _CH          7.3747    15.1989     5.1948 CH_sp2        1 RES
     577 _CH         32.9691    36.6820    28.0001 CH_sp2        1 RES
     578 _CH         33.0394    35.8772    26.8567 CH_sp2        1 RES
     579 _CH         33.8397    36.2654    25.7756 CH_sp2        1 RES
     580 _CH         34.5698    37.4584    25.8380 CH_sp2        1 RES
     581 _CH         34.4995    38.2631    26.9814 CH_sp2        1 RES
     582 _CH         33.6992    37.8749    28.0625 CH_sp2        1 RES
     583 _CH         32.7418    21.5864    24.4867 CH_sp2        1 RES
     584 _CH         33.0845    20.2941    24.9021 CH_sp2        1 RES
     585 _CH         33.7643    20.1047    26.1112 CH_sp2        1 RES
     586 _CH         34.1013    21.2076    26.9050 CH_sp2        1 RES
     587 _CH         33.7586    22.4999    26.4896 CH_sp2        1 RES
     588 _CH         33.0789    22.6893    25.2805 CH_sp2        1 RES
     589 _CH         13.8069    18.2287    24.5739 CH_sp2        1 RES
     590 _CH         14.8490    17.6819    23.8156 CH_sp2        1 RES
     591 _CH         15.7171    16.7463    24.3909 CH_sp2        1 RES
     592 _CH         15.5432    16.3575    25.7245 CH_sp2        1 RES
     593 _CH         14.5011    16.9043    26.4828 CH_sp2        1 RES
     594 _CH         13.6329    17.8399    25.9075 CH_sp2        1 RES
     595 _CH         37.5780    10.6326    17.0071 CH_sp2        1 RES
     596 _CH         36.6906    11.2927    16.1487 CH_sp2        1 RES
     597 _CH         36.9150    12.6309    15.8042 CH_sp2        1 RES
     598 _CH         38.0267    13.3091    16.3179 CH_sp2        1 RES
     599 _CH         38.9142    12.6491    17.1763 CH_sp2        1 RES
     600 _CH         38.6898    11.3109    17.5209 CH_sp2        1 RES
     601 _CH         30.5863    20.0939    22.4895 CH_sp2        1 RES
     602 _CH         30.6422    21.4853    22.6337 CH_sp2        1 RES
     603 _CH         30.0918    22.0941    23.7679 CH_sp2        1 RES
     604 _CH         29.4856    21.3116    24.7578 CH_sp2        1 RES
     605 _CH         29.4297    19.9201    24.6136 CH_sp2        1 RES
     606 _CH         29.9801    19.3113    23.4794 CH_sp2        1 RES
     607 _CH          6.0158    27.3351    22.8843 CH_sp2        1 RES
     608 _CH          5.9794    28.1767    24.0026 CH_sp2        1 RES
     609 _CH          6.8093    29.3029    24.0585 CH_sp2        1 RES
     610 _CH          7.6755    29.5875    22.9961 CH_sp2        1 RES
     611 _CH          7.7119    28.7459    21.8778 CH_sp2        1 RES
     612 _CH          6.8821    27.6198    21.8220 CH_sp2        1 RES
     613 _CH         23.1359    10.4585    40.1697 CH_sp2        1 RES
     614 _CH         21.9833    11.0478    39.6362 CH_sp2        1 RES
     615 _CH         22.0262    11.6522    38.3742 CH_sp2        1 RES
     616 _CH         23.2216    11.6674    37.6455 CH_sp2        1 RES
     617 _CH         24.3741    11.0782    38.1790 CH_sp2        1 RES
     618 _CH         24.3312    10.4738    39.4410 CH_sp2        1 RES
     619 _CH         25.8149    11.8743    34.0368 CH_sp2        1 RES
     620 _CH         27.0024    11.1327    34.0370 CH_sp2        1 RES
     621 _CH         28.2384    11.7903    34.0374 CH_sp2        1 RES
     622 _CH         28.2869    13.1894    34.0376 CH_sp2        1 RES
     623 _CH         27.0994    13.9310    34.0374 CH_sp2        1 RES
     624 _CH         25.8635    13.2735    34.0370 CH_sp2        1 RES
     625 _CH         35.5702    38.9593    20.2620 CH_sp2        1 RES
     626 _CH         34.8136    39.9328    20.9252 CH_sp2        1 RES
     627 _CH         33.4154    39.8938    20.8652 CH_sp2        1 RES
     628 _CH         32.7738    38.8811    20.1420 CH_sp2        1 RES
     629 _CH         33.5304    37.9076    19.4789 CH_sp2        1 RES
     630 _CH         34.9286    37.9467    19.5388 CH_sp2        1 RES
     631 _CH         20.3359    17.4789     5.8616 CH_sp2        1 RES
     632 _CH         19.8171    18.0807     4.7090 CH_sp2        1 RES
     633 _CH         20.6752    18.4556     3.6682 CH_sp2        1 RES
     634 _CH         22.0521    18.2287     3.7801 CH_sp2        1 RES
     635 _CH         22.5709    17.6269     4.9328 CH_sp2        1 RES
     636 _CH         21.7129    17.2520     5.9735 CH_sp2        1 RES
     637 _CH          4.2229    30.2798    12.0300 CH_sp2        1 RES
     638 _CH          4.5143    30.5665    10.6910 CH_sp2        1 RES
     639 _CH          4.2175    29.6296     9.6939 CH_sp2        1 RES
     640 _CH          3.6293    28.4061    10.0358 CH_sp2        1 RES
     641 _CH          3.3379    28.1194    11.3748 CH_sp2        1 RES
     642 _CH          3.6347    29.0563    12.3719 CH_sp2        1 RES
     643 _CH          4.4808    29.7656    32.7626 CH_sp2        1 RES
     644 _CH          4.2446    28.5429    33.4024 CH_sp2        1 RES
     645 _CH          4.3696    27.3444    32.6898 CH_sp2        1 RES
     646 _CH          4.7309    27.3684    31.3374 CH_sp2        1 RES
     647 _CH          4.9671    28.5911    30.6976 CH_sp2        1 RES
     648 _CH          4.8421    29.7897    31.4102 CH_sp2        1 RES
     649 _CH         35.1117    29.9826     9.8974 CH_sp2        1 RES
     650 _CH         36.4658    30.1133    10.2281 CH_sp2        1 RES
     651 _CH         37.1896    31.2277     9.7874 CH_sp2        1 RES
     652 _CH         36.5594    32.2114     9.0161 CH_sp2        1 RES
     653 _CH         35.2053    32.0808     8.6854 CH_sp2        1 RES
     654 _CH         34.4815    30.9664     9.1260 CH_sp2        1 RES
     655 _CH         29.8215     6.0799    11.4936 CH_sp2        1 RES
     656 _CH         29.6074     4.8141    12.0521 CH_sp2        1 RES
     657 _CH         28.3966     4.5278    12.6938 CH_sp2        1 RES
     658 _CH         27.3997     5.5072    12.7770 CH_sp2        1 RES
     659 _CH         27.6137     6.7730    12.2185 CH_sp2        1 RES
     660 _CH         28.8246     7.0594    11.5768 CH_sp2        1 RES
     661 _CH         14.0381     4.3944     4.6369 CH_sp2        1 RES
     662 _CH         13.6567     5.6666     4.1943 CH_sp2        1 RES
     663 _CH         12.9431     5.8068     2.9979 CH_sp2        1 RES
     664 _CH         12.6111     4.6747     2.2442 CH_sp2        1 RES
     665 _CH         12.9926     3.4025     2.6868 CH_sp2        1 RES
     666 _CH         13.7061     3.2623     3.8831 CH_sp2        1 RES
     667 _CH         10.2435    14.9687    37.3031 CH_sp2        1 RES
     668 _CH         10.4159    16.2655    36.8045 CH_sp2        1 RES
     669 _CH          9.6710    16.6955    35.6999 CH_sp2        1 RES
     670 _CH          8.7537    15.8287    35.0939 CH_sp2        1 RES
     671 _CH          8.5813    14.5319    35.5925 CH_sp2        1 RES
     672 _CH          9.3262    14.1019    36.6971 CH_sp2        1 RES
     673 _CH         18.7192    16.7409    39.3478 CH_sp2        1 RES
     674 _CH         19.5514    17.2439    38.3407 CH_sp2        1 RES
     675 _CH         20.7253    16.5625    37.9973 CH_sp2        1 RES
     676 _CH         21.0668    15.3782    38.6611 CH_sp2        1 RES
     677 _CH         20.2345    14.8752    39.6683 CH_sp2        1 RES
     678 _CH         19.0607    15.5565    40.0116 CH_sp2        1 RES
     679 _CH         38.3512    27.2505    30.0694 CH_sp2        1 RES
     680 _CH         37.8896    26.6886    31.2657 CH_sp2        1 RES
     681 _CH         37.6545    27.5057    32.3779 CH_sp2        1 RES
     682 _CH         37.8811    28.8846    32.2939 CH_sp2        1 RES
     683 _CH         38.3427    29.4465    31.0976 CH_sp2        1 RES
     684 _CH         38.5778    28.6294    29.9853 CH_sp2        1 RES
     685 _CH         15.8864    36.1101    39.7451 CH_sp2        1 RES
     686 _CH         17.0031    35.3197    39.4482 CH_sp2        1 RES
     687 _CH         16.8353    34.0759    38.8277 CH_sp2        1 RES
     688 _CH         15.5508    33.6226    38.5042 CH_sp2        1 RES
     689 _CH         14.4341    34.4131    38.8012 CH_sp2        1 RES
     690 _CH         14.6019    35.6568    39.4216 CH_sp2        1 RES
     691 _CH         21.7593    27.5606    26.8235 CH_sp2        1 RES
     692 _CH         23.0325    27.0013    26.6618 CH_sp2        1 RES
     693 _CH         24.1596    27.8301    26.6094 CH_sp2        1 RES
     694 _CH         24.0136    29.2181    26.7189 CH_sp2        1 RES
     695 _CH         22.7404    29.7774    26.8807 CH_sp2        1 RES
     696 _CH         21.6132    28.9487    26.9330 CH_sp2        1 RES
     697 _CH         36.4167    19.9419    36.6566 CH_sp2        1 RES
     698 _CH         36.7709    19.8836    38.0098 CH_sp2        1 RES
     699 _CH         36.9188    18.6432    38.6419 CH_sp2        1 RES
     700 _CH         36.7125    17.4611    37.9208 CH_sp2        1 RES
     701 _CH         36.3582    17.5194    36.5676 CH_sp2        1 RES
     702 _CH         36.2103    18.7598    35.9355 CH_sp2        1 RES
     703 _CH         28.2421    37.2683    38.2450 CH_sp2        1 RES
     704 _CH         27.7198    36.3851    39.1974 CH_sp2        1 RES
     705 _CH         28.4564    35.2601    39.5872 CH_sp2        1 RES
     706 _CH         29.7154    35.0184    39.0245 CH_sp2        1 RES
     707 _CH         30.2377    35.9016    38.0721 CH_sp2        1 RES
     708 _CH         29.5011    37.0265    37.6823 CH_sp2        1 RES
     709 _CH          7.4348    36.6415    37.2179 CH_sp2        1 RES
     710 _CH          7.7591    37.9691    37.5215 CH_sp2        1 RES
     711 _CH          7.4302    38.9927    36.6248 CH_sp2        1 RES
     712 _CH          6.7770    38.6887    35.4245 CH_sp2        1 RES
     713 _CH          6.4526    37.3610    35.1209 CH_sp2        1 RES
     714 _CH          6.7815    36.3374    36.0176 CH_sp2        1 RES
     715 _CH          9.8703    27.4230    24.2122 CH_sp2        1 RES
     716 _CH          9.7814    26.4806    23.1807 CH_sp2        1 RES
     717 _CH         10.9455    25.9147    22.6473 CH_sp2        1 RES
     718 _CH         12.1985    26.2911    23.1455 CH_sp2        1 RES
     719 _CH         12.2874    27.2335    24.1770 CH_sp2        1 RES
     720 _CH         11.1233    27.7994    24.7104 CH_sp2        1 RES
     721 _CH         14.8293    30.7543     4.0537 CH_sp2        1 RES
     722 _CH         16.1602    30.6746     4.4810 CH_sp2        1 RES
     723 _CH         16.8089    31.8161     4.9670 CH_sp2        1 RES
     724 _CH         16.1267    33.0372     5.0258 CH_sp2        1 RES
     725 _CH         14.7959    33.1169     4.5986 CH_sp2        1 RES
     726 _CH         14.1472    31.9754     4.1125 CH_sp2        1 RES
     727 _CH          4.9347     9.7227     3.6416 CH_sp2        1 RES
     728 _CH          6.2278    10.1256     3.2873 CH_sp2        1 RES
     729 _CH          6.5055    11.4816     3.0767 CH_sp2        1 RES
     730 _CH          5.4901    12.4346     3.2204 CH_sp2        1 RES
     731 _CH          4.1970    12.0317     3.5747 CH_sp2        1 RES
     732 _CH          3.9193    10.6758     3.7853 CH_sp2        1 RES
     733 _CH         33.7501    26.6786     5.1462 CH_sp2        1 RES
     734 _CH         34.1015    26.9575     3.8201 CH_sp2        1 RES
     735 _CH         33.1996    27.6244     2.9824 CH_sp2        1 RES
     736 _CH         31.9462    28.0123     3.4708 CH_sp2        1 RES
     737 _CH         31.5947    27.7333     4.7969 CH_sp2        1 RES
     738 _CH         32.4967    27.0665     5.6347 CH_sp2        1 RES
     739 _CH         38.4614    18.2959     4.1093 CH_sp2        1 RES
     740 _CH         39.3438    19.3824     4.0808 CH_sp2        1 RES
     741 _CH         39.4134    20.2565     5.1722 CH_sp2        1 RES
     742 _CH         38.6006    20.0441     6.2921 CH_sp2        1 RES
     743 _CH         37.7181    18.9575     6.3206 CH_sp2        1 RES
     744 _CH         37.6486    18.0835     5.2292 CH_sp2        1 RES
     745 _CH          5.9350    28.8878    15.0338 CH_sp2        1 RES
     746 _CH          5.5272    28.8730    13.6946 CH_sp2        1 RES
     747 _CH          5.6288    27.6950    12.9449 CH_sp2        1 RES
     748 _CH          6.1382    26.5318    13.5344 CH_sp2        1 RES
     749 _CH          6.5460    26.5466    14.8736 CH_sp2        1 RES
     750 _CH          6.4444    27.7246    15.6233 CH_sp2        1 RES
     751 _CH         13.0567    30.1281    12.0365 CH_sp2        1 RES
     752 _CH         12.9900    30.4130    10.6675 CH_sp2        1 RES
     753 _CH         11.8239    30.9645    10.1232 CH_sp2        1 RES
     754 _CH         10.7245    31.2309    10.9480 CH_sp2        1 RES
     755 _CH         10.7912    30.9459    12.3171 CH_sp2        1 RES
     756 _CH         11.9573    30.3945    12.8613 CH_sp2        1 RES
     757 _CH          9.7445    25.8425    12.0123 CH_sp2        1 RES
     758 _CH         10.8773    25.2265    12.5576 CH_sp2        1 RES
     759 _CH         10.8852    24.8416    13.9036 CH_sp2        1 RES
     760 _CH          9.7603    25.0725    14.7043 CH_sp2        1 RES
     761 _CH          8.6274    25.6885    14.1591 CH_sp2        1 RES
     762 _CH          8.6195    26.0734    12.8131 CH_sp2        1 RES
     763 _CH         38.0366     4.6508    35.8496 CH_sp2        1 RES
     764 _CH         37.2474     4.1425    34.8110 CH_sp2        1 RES
     765 _CH         36.3876     3.0635    35.0488 CH_sp2        1 RES
     766 _CH         36.3170     2.4929    36.3253 CH_sp2        1 RES
     767 _CH         37.1062     3.0012    37.3639 CH_sp2        1 RES
     768 _CH         37.9660     4.0802    37.1261 CH_sp2        1 RES
     769 _CH         14.1859    36.8952    36.5778 CH_sp2        1 RES
     770 _CH         14.2147    36.9713    35.1802 CH_sp2        1 RES
     771 _CH         15.2311    37.6896    34.5390 CH_sp2        1 RES
     772 _CH         16.2187    38.3317    35.2955 CH_sp2        1 RES
     773 _CH         16.1900    38.2555    36.6932 CH_sp2        1 RES
     774 _CH         15.1736    37.5372    37.3343 CH_sp2        1 RES
     775 _CH          2.4369     5.7524    33.8833 CH_sp2        1 RES
     776 _CH          2.0002     6.6625    32.9133 CH_sp2        1 RES
     777 _CH          2.3504     8.0143    33.0136 CH_sp2        1 RES
     778 _CH          3.1374     8.4559    34.0839 CH_sp2        1 RES
     779 _CH          3.5741     7.5458    35.0539 CH_sp2        1 RES
     780 _CH          3.2239     6.1941    34.9537 CH_sp2        1 RES
     781 _CH         27.3415     7.2223     7.4012 CH_sp2        1 RES
     782 _CH         27.5016     8.4917     6.8330 CH_sp2        1 RES
     783 _CH         26.3929     9.3311     6.6711 CH_sp2        1 RES
     784 _CH         25.1241     8.9010     7.0774 CH_sp2        1 RES
     785 _CH         24.9639     7.6316     7.6456 CH_sp2        1 RES
     786 _CH         26.0726     6.7922     7.8075 CH_sp2        1 RES
     787 _CH         13.7615    29.8110    30.8408 CH_sp2        1 RES
     788 _CH         12.5533    29.1151    30.9678 CH_sp2        1 RES
     789 _CH         11.3853    29.6296    30.3925 CH_sp2        1 RES
     790 _CH         11.4254    30.8401    29.6902 CH_sp2        1 RES
     791 _CH         12.6335    31.5360    29.5632 CH_sp2        1 RES
     792 _CH         13.8016    31.0214    30.1385 CH_sp2        1 RES
     793 _CH         23.7256    20.3838    32.5617 CH_sp2        1 RES
     794 _CH         22.5976    20.0869    31.7875 CH_sp2        1 RES
     795 _CH         22.7488    19.4878    30.5312 CH_sp2        1 RES
     796 _CH         24.0279    19.1856    30.0492 CH_sp2        1 RES
     797 _CH         25.1559    19.4825    30.8235 CH_sp2        1 RES
     798 _CH         25.0047    20.0815    32.0797 CH_sp2        1 RES
     799 _CH         28.1728    24.9518    11.7315 CH_sp2        1 RES
     800 _CH         27.4732    25.9719    12.3873 CH_sp2        1 RES
     801 _CH         27.9385    27.2909    12.3263 CH_sp2        1 RES
     802 _CH         29.1034    27.5898    11.6096 CH_sp2        1 RES
     803 _CH         29.8030    26.5697    10.9539 CH_sp2        1 RES
     804 _CH         29.3377    25.2507    11.0148 CH_sp2        1 RES
     805 _CH         24.3184    31.7749     3.8137 CH_sp2        1 RES
     806 _CH         23.0822    32.1797     4.3313 CH_sp2        1 RES
     807 _CH         22.3460    33.1795     3.6844 CH_sp2        1 RES
     808 _CH         22.8460    33.7745     2.5199 CH_sp2        1 RES
     809 _CH         24.0823    33.3696     2.0023 CH_sp2        1 RES
     810 _CH         24.8184    32.3698     2.6492 CH_sp2        1 RES
     811 _CH         29.0096    26.2477    25.6782 CH_sp2        1 RES
     812 _CH         30.0583    27.0822    26.0831 CH_sp2        1 RES
     813 _CH         29.8332    28.4523    26.2626 CH_sp2        1 RES
     814 _CH         28.5595    28.9879    26.0372 CH_sp2        1 RES
     815 _CH         27.5109    28.1534    25.6322 CH_sp2        1 RES
     816 _CH         27.7359    26.7833    25.4528 CH_sp2        1 RES
     817 _CH         25.2094    34.2129    16.3527 CH_sp2        1 RES
     818 _CH         24.5621    34.5241    15.1509 CH_sp2        1 RES
     819 _CH         25.2637    35.1667    14.1239 CH_sp2        1 RES
     820 _CH         26.6127    35.4981    14.2986 CH_sp2        1 RES
     821 _CH         27.2600    35.1868    15.5003 CH_sp2        1 RES
     822 _CH         26.5583    34.5443    16.5274 CH_sp2        1 RES
     823 _CH          2.9718    15.2695    24.3235 CH_sp2        1 RES
     824 _CH          3.0507    16.6309    24.0067 CH_sp2        1 RES
     825 _CH          3.3277    17.5680    25.0093 CH_sp2        1 RES
     826 _CH          3.5257    17.1437    26.3287 CH_sp2        1 RES
     827 _CH          3.4468    15.7823    26.6455 CH_sp2        1 RES
     828 _CH          3.1698    14.8452    25.6429 CH_sp2        1 RES
     829 _CH         21.7963    27.7760     8.5498 CH_sp2        1 RES
     830 _CH         21.2016    26.8987     7.6351 CH_sp2        1 RES
     831 _CH         20.8917    27.3391     6.3428 CH_sp2        1 RES
     832 _CH         21.1764    28.6568     5.9652 CH_sp2        1 RES
     833 _CH         21.7711    29.5341     6.8799 CH_sp2        1 RES
     834 _CH         22.0810    29.0938     8.1722 CH_sp2        1 RES
     835 _CH         11.4855    37.2837    11.6468 CH_sp2        1 RES
     836 _CH         10.6873    38.2010    10.9530 CH_sp2        1 RES
     837 _CH          9.3111    37.9767    10.8272 CH_sp2        1 RES
     838 _CH          8.7332    36.8350    11.3952 CH_sp2        1 RES
     839 _CH          9.5315    35.9176    12.0889 CH_sp2        1 RES
     840 _CH         10.9076    36.1420    12.2147 CH_sp2        1 RES
     841 _CH         14.4164    14.4762    24.5280 CH_sp2        1 RES
     842 _CH         13.0258    14.4049    24.6736 CH_sp2        1 RES
     843 _CH         12.4237    13.2033    25.0654 CH_sp2        1 RES
     844 _CH         13.2121    12.0730    25.3117 CH_sp2        1 RES
     845 _CH         14.6027    12.1442    25.1661 CH_sp2        1 RES
     846 _CH         15.2048    13.3459    24.7743 CH_sp2        1 RES
     847 _CH         11.1766    33.4404    19.1779 CH_sp2        1 RES
     848 _CH         10.3440    34.0879    20.0984 CH_sp2        1 RES
     849 _CH          9.1320    33.5003    20.4802 CH_sp2        1 RES
     850 _CH          8.7526    32.2651    19.9413 CH_sp2        1 RES
     851 _CH          9.5852    31.6175    19.0208 CH_sp2        1 RES
     852 _CH         10.7972    32.2052    18.6390 CH_sp2        1 RES
     853 _CH         13.4610    24.5255    28.2922 CH_sp2        1 RES
     854 _CH         14.5361    25.3659    27.9791 CH_sp2        1 RES
     855 _CH         14.4055    26.3209    26.9638 CH_sp2        1 RES
     856 _CH         13.1999    26.4356    26.2615 CH_sp2        1 RES
     857 _CH         12.1248    25.5952    26.5746 CH_sp2        1 RES
     858 _CH         12.2553    24.6402    27.5899 CH_sp2        1 RES
     859 _CH         24.3988    31.2091    31.2751 CH_sp2        1 RES
     860 _CH         23.2685    32.0272    31.1602 CH_sp2        1 RES
     861 _CH         21.9880    31.4651    31.2254 CH_sp2        1 RES
     862 _CH         21.8377    30.0849    31.4055 CH_sp2        1 RES
     863 _CH         22.9680    29.2667    31.5204 CH_sp2        1 RES
     864 _CH         24.2485    29.8288    31.4552 CH_sp2        1 RES
     865 _CH          3.9168    25.4725    17.3293 CH_sp2        1 RES
     866 _CH          2.7909    26.0222    17.9540 CH_sp2        1 RES
     867 _CH          2.0019    25.2307    18.7972 CH_sp2        1 RES
     868 _CH          2.3388    23.8896    19.0157 CH_sp2        1 RES
     869 _CH          3.4646    23.3399    18.3910 CH_sp2        1 RES
     870 _CH          4.2536    24.1313    17.5478 CH_sp2        1 RES
     871 _CH         10.5363    30.0584    14.8228 CH_sp2        1 RES
     872 _CH          9.2819    30.6115    14.5392 CH_sp2        1 RES
     873 _CH          8.1725    29.7761    14.3619 CH_sp2        1 RES
     874 _CH          8.3175    28.3877    14.4683 CH_sp2        1 RES
     875 _CH          9.5720    27.8347    14.7519 CH_sp2        1 RES
     876 _CH         10.6814    28.6700    14.9292 CH_sp2        1 RES
     877 _CH         24.1822    31.9799    25.5771 CH_sp2        1 RES
     878 _CH         23.1277    32.4978    24.8155 CH_sp2        1 RES
     879 _CH         22.9823    32.1223    23.4747 CH_sp2        1 RES
     880 _CH         23.8913    31.2289    22.8954 CH_sp2        1 RES
     881 _CH         24.9458    30.7111    23.6569 CH_sp2        1 RES
     882 _CH         25.0912    31.0866    24.9978 CH_sp2        1 RES
     883 _CH         34.5191    12.1956    30.5579 CH_sp2        1 RES
     884 _CH         34.5987    12.8831    29.3409 CH_sp2        1 RES
     885 _CH         33.7517    13.9702    29.0944 CH_sp2        1 RES
     886 _CH         32.8251    14.3698    30.0648 CH_sp2        1 RES
     887 _CH         32.7455    13.6824    31.2818 CH_sp2        1 RES
     888 _CH         33.5925    12.5953    31.5284 CH_sp2        1 RES
     889 _CH          7.9732     9.1811    30.1087 CH_sp2        1 RES
     890 _CH          7.6211     7.8291    30.0187 CH_sp2        1 RES
     891 _CH          8.6107     6.8602    29.8144 CH_sp2        1 RES
     892 _CH          9.9525     7.2432    29.7002 CH_sp2        1 RES
     893 _CH         10.3045     8.5953    29.7903 CH_sp2        1 RES
     894 _CH          9.3149     9.5642    29.9945 CH_sp2        1 RES
     895 _CH          8.3872    29.9427    33.1648 CH_sp2        1 RES
     896 _CH          9.0632    28.7186    33.2308 CH_sp2        1 RES
     897 _CH          9.5185    28.1062    32.0570 CH_sp2        1 RES
     898 _CH          9.2977    28.7180    30.8173 CH_sp2        1 RES
     899 _CH          8.6216    29.9421    30.7513 CH_sp2        1 RES
     900 _CH          8.1664    30.5545    31.9251 CH_sp2        1 RES
     901 _CH         31.8991     8.1615    15.2940 CH_sp2        1 RES
     902 _CH         32.7998     7.4682    16.1113 CH_sp2        1 RES
     903 _CH         33.5762     8.1645    17.0454 CH_sp2        1 RES
     904 _CH         33.4519     9.5540    17.1621 CH_sp2        1 RES
     905 _CH         32.5512    10.2474    16.3447 CH_sp2        1 RES
     906 _CH         31.7748     9.5511    15.4107 CH_sp2        1 RES
     907 _CH         10.5819    38.5077    31.8100 CH_sp2        1 RES
     908 _CH         11.2315    37.3540    32.2649 CH_sp2        1 RES
     909 _CH         12.5932    37.3982    32.5870 CH_sp2        1 RES
     910 _CH         13.3054    38.5961    32.4540 CH_sp2        1 RES
     911 _CH         12.6559    39.7499    31.9991 CH_sp2        1 RES
     912 _CH         11.2942    39.7057    31.6771 CH_sp2        1 RES
     913 _CH         19.1638     4.1998    11.4624 CH_sp2        1 RES
     914 _CH         20.3494     3.8006    10.8339 CH_sp2        1 RES
     915 _CH         21.3263     4.7510    10.5139 CH_sp2        1 RES
     916 _CH         21.1176     6.1006    10.8224 CH_sp2        1 RES
     917 _CH         19.9320     6.4997    11.4509 CH_sp2        1 RES
     918 _CH         18.9551     5.5493    11.7709 CH_sp2        1 RES
     919 _CH         34.6540     8.3085    36.9472 CH_sp2        1 RES
     920 _CH         33.3661     8.5889    37.4190 CH_sp2        1 RES
     921 _CH         33.1260     9.7630    38.1427 CH_sp2        1 RES
     922 _CH         34.1738    10.6567    38.3947 CH_sp2        1 RES
     923 _CH         35.4617    10.3762    37.9228 CH_sp2        1 RES
     924 _CH         35.7018     9.2021    37.1991 CH_sp2        1 RES
     925 _CH         27.2022     8.6871    14.2524 CH_sp2        1 RES
     926 _CH         26.9434    10.0347    14.5299 CH_sp2        1 RES
     927 _CH         28.0052    10.9230    14.7382 CH_sp2        1 RES
     928 _CH         29.3259    10.4637    14.6690 CH_sp2        1 RES
     929 _CH         29.5848     9.1161    14.3915 CH_sp2        1 RES
     930 _CH         28.5229     8.2279    14.1832 CH_sp2        1 RES
     931 _CH         28.8463    18.5045    27.4372 CH_sp2        1 RES
     932 _CH         29.4136    18.9713    28.6290 CH_sp2        1 RES
     933 _CH         28.7054    19.8691    29.4367 CH_sp2        1 RES
     934 _CH         27.4299    20.3001    29.0527 CH_sp2        1 RES
     935 _CH         26.8626    19.8332    27.8609 CH_sp2        1 RES
     936 _CH         27.5708    18.9354    27.0532 CH_sp2        1 RES
     937 _CH         13.3672    19.6808    20.9192 CH_sp2        1 RES
     938 _CH         13.2532    19.1238    19.6399 CH_sp2        1 RES
     939 _CH         12.5158    19.7862    18.6512 CH_sp2        1 RES
     940 _CH         11.8924    21.0056    18.9419 CH_sp2        1 RES
     941 _CH         12.0065    21.5626    20.2213 CH_sp2        1 RES
     942 _CH         12.7439    20.9002    21.2099 CH_sp2        1 RES
     943 _CH         12.1917    19.8414    37.8929 CH_sp2        1 RES
     944 _CH         12.4800    20.9431    37.0786 CH_sp2        1 RES
     945 _CH         11.5076    21.4392    36.2020 CH_sp2        1 RES
     946 _CH         10.2470    20.8335    36.1397 CH_sp2        1 RES
     947 _CH          9.9586    19.7318    36.9540 CH_sp2        1 RES
     948 _CH         10.9310    19.2357    37.8306 CH_sp2        1 RES
     949 _CH         17.0160     6.1577     9.6719 CH_sp2        1 RES
     950 _CH         16.2817     5.6797     8.5799 CH_sp2        1 RES
     951 _CH         15.3477     4.6525     8.7601 CH_sp2        1 RES
     952 _CH         15.1480     4.1032    10.0322 CH_sp2        1 RES
     953 _CH         15.8823     4.5812    11.1242 CH_sp2        1 RES
     954 _CH         16.8163     5.6084    10.9440 CH_sp2        1 RES
     955 _CH         21.3855    13.8609     2.0128 CH_sp2        1 RES
     956 _CH         20.4391    13.1833     2.7907 CH_sp2        1 RES
     957 _CH         19.6447    13.8912     3.7006 CH_sp2        1 RES
     958 _CH         19.7967    15.2767     3.8325 CH_sp2        1 RES
     959 _CH         20.7431    15.9542     3.0546 CH_sp2        1 RES
     960 _CH         21.5375    15.2464     2.1447 CH_sp2        1 RES
     961 _CH         28.5772    24.5667     4.1841 CH_sp2        1 RES
     962 _CH         27.4356    24.8631     4.9384 CH_sp2        1 RES
     963 _CH         26.6728    25.9977     4.6373 CH_sp2        1 RES
     964 _CH         27.0515    26.8360     3.5820 CH_sp2        1 RES
     965 _CH         28.1931    26.5397     2.8277 CH_sp2        1 RES
     966 _CH         28.9559    25.4050     3.1287 CH_sp2        1 RES
     967 _CH          3.9270    15.3092    21.1738 CH_sp2        1 RES
     968 _CH          3.9304    16.5211    21.8746 CH_sp2        1 RES
     969 _CH          5.1080    16.9767    22.4795 CH_sp2        1 RES
     970 _CH          6.2821    16.2202    22.3834 CH_sp2        1 RES
     971 _CH          6.2787    15.0083    21.6826 CH_sp2        1 RES
     972 _CH          5.1011    14.5528    21.0777 CH_sp2        1 RES
     973 _CH         10.4397    18.2521    25.0964 CH_sp2        1 RES
     974 _CH         11.6791    17.6424    24.8681 CH_sp2        1 RES
     975 _CH         11.7376    16.2957    24.4897 CH_sp2        1 RES
     976 _CH         10.5567    15.5588    24.3396 CH_sp2        1 RES
     977 _CH          9.3173    16.1686    24.5679 CH_sp2        1 RES
     978 _CH          9.2588    17.5152    24.9463 CH_sp2        1 RES
     979 _CH         13.4245    11.9225     2.1851 CH_sp2        1 RES
     980 _CH         14.4188    12.8999     2.0580 CH_sp2        1 RES
     981 _CH         15.7662    12.5243     2.0000 CH_sp2        1 RES
     982 _CH         16.1194    11.1713     2.0691 CH_sp2        1 RES
     983 _CH         15.1251    10.1939     2.1962 CH_sp2        1 RES
     984 _CH         13.7777    10.5695     2.2542 CH_sp2        1 RES
     985 _CH         20.9882    27.8092    31.1226 CH_sp2        1 RES
     986 _CH         21.4700    27.9813    29.8194 CH_sp2        1 RES
     987 _CH         20.6467    27.6919    28.7247 CH_sp2        1 RES
     988 _CH         19.3414    27.2306    28.9332 CH_sp2        1 RES
     989 _CH         18.8595    27.0585    30.2364 CH_sp2        1 RES
     990 _CH         19.6829    27.3479    31.3310 CH_sp2        1 RES
     991 _CH          3.0753     7.2529    18.4185 CH_sp2        1 RES
     992 _CH          2.0154     8.1114    18.1030 CH_sp2        1 RES
     993 _CH          2.2655     9.4619    17.8315 CH_sp2        1 RES
     994 _CH          3.5755     9.9538    17.8755 CH_sp2        1 RES
     995 _CH          4.6354     9.0953    18.1910 CH_sp2        1 RES
     996 _CH          4.3853     7.7448    18.4625 CH_sp2        1 RES
     997 _CH         18.0846    14.9829    27.7094 CH_sp2        1 RES
     998 _CH         17.2492    14.9552    28.8325 CH_sp2        1 RES
     999 _CH         16.7031    16.1452    29.3281 CH_sp2        1 RES
    1000 _CH         16.9923    17.3629    28.7006 CH_sp2        1 RES
    1001 _CH         17.8277    17.3905    27.5775 CH_sp2        1 RES
    1002 _CH         18.3738    16.2005    27.0819 CH_sp2        1 RES
    1003 _CH         13.5149    27.8010    33.5933 CH_sp2        1 RES
    1004 _CH         13.6100    27.5974    34.9752 CH_sp2        1 RES
    1005 _CH         14.8672    27.4993    35.5834 CH_sp2        1 RES
    1006 _CH         16.0292    27.6049    34.8097 CH_sp2        1 RES
    1007 _CH         15.9341    27.8085    33.4279 CH_sp2        1 RES
    1008 _CH         14.6769    27.9065    32.8197 CH_sp2        1 RES
    1009 _CH          8.8626    10.5123    32.5291 CH_sp2        1 RES
    1010 _CH          7.6579    10.4803    33.2417 CH_sp2        1 RES
    1011 _CH          7.2930     9.3281    33.9483 CH_sp2        1 RES
    1012 _CH          8.1327     8.2079    33.9424 CH_sp2        1 RES
    1013 _CH          9.3374     8.2399    33.2298 CH_sp2        1 RES
    1014 _CH          9.7023     9.3921    32.5232 CH_sp2        1 RES
    1015 _CH          6.1731    35.8469    12.6646 CH_sp2        1 RES
    1016 _CH          7.4824    35.4000    12.8795 CH_sp2        1 RES
    1017 _CH          7.7387    34.0325    13.0348 CH_sp2        1 RES
    1018 _CH          6.6857    33.1118    12.9752 CH_sp2        1 RES
    1019 _CH          5.3765    33.5586    12.7603 CH_sp2        1 RES
    1020 _CH          5.1202    34.9261    12.6050 CH_sp2        1 RES
    1021 _CH         36.9533    35.2277    18.9085 CH_sp2        1 RES
    1022 _CH         37.6488    36.1887    19.6521 CH_sp2        1 RES
    1023 _CH         38.9381    35.9116    20.1222 CH_sp2        1 RES
    1024 _CH         39.5319    34.6736    19.8488 CH_sp2        1 RES
    1025 _CH         38.8364    33.7127    19.1052 CH_sp2        1 RES
    1026 _CH         37.5471    33.9897    18.6351 CH_sp2        1 RES
    1027 _CH         23.2616    24.3469    15.4181 CH_sp2        1 RES
    1028 _CH         23.9720    23.1451    15.3135 CH_sp2        1 RES
    1029 _CH         25.3618    23.1366    15.4812 CH_sp2        1 RES
    1030 _CH         26.0414    24.3299    15.7535 CH_sp2        1 RES
    1031 _CH         25.3310    25.5318    15.8581 CH_sp2        1 RES
    1032 _CH         23.9411    25.5403    15.6904 CH_sp2        1 RES
    1033 _CH         12.1150    13.0557     7.8032 CH_sp2        1 RES
    1034 _CH         12.0596    12.7114     9.1590 CH_sp2        1 RES
    1035 _CH         10.8278    12.4215     9.7578 CH_sp2        1 RES
    1036 _CH          9.6514    12.4759     9.0008 CH_sp2        1 RES
    1037 _CH          9.7068    12.8202     7.6449 CH_sp2        1 RES
    1038 _CH         10.9386    13.1101     7.0461 CH_sp2        1 RES
    1039 _CH         34.9203    18.4344    39.5375 CH_sp2        1 RES
    1040 _CH         34.2754    19.5044    40.1693 CH_sp2        1 RES
    1041 _CH         33.2822    20.2217    39.4918 CH_sp2        1 RES
    1042 _CH         32.9339    19.8690    38.1825 CH_sp2        1 RES
    1043 _CH         33.5787    18.7990    37.5507 CH_sp2        1 RES
    1044 _CH         34.5719    18.0817    38.2281 CH_sp2        1 RES
    1045 _CH          4.7642    34.2948     5.4719 CH_sp2        1 RES
    1046 _CH          4.7196    35.3714     4.5781 CH_sp2        1 RES
    1047 _CH          3.7161    35.4313     3.6038 CH_sp2        1 RES
    1048 _CH          2.7571    34.4145     3.5233 CH_sp2        1 RES
    1049 _CH          2.8017    33.3379     4.4171 CH_sp2        1 RES
    1050 _CH          3.8052    33.2780     5.3914 CH_sp2        1 RES
    1051 _CH          9.3822    13.8122    27.8539 CH_sp2        1 RES
    1052 _CH         10.7200    13.4587    27.6408 CH_sp2        1 RES
    1053 _CH         11.7413    14.1563    28.2968 CH_sp2        1 RES
    1054 _CH         11.4249    15.2072    29.1659 CH_sp2        1 RES
    1055 _CH         10.0871    15.5607    29.3790 CH_sp2        1 RES
    1056 _CH          9.0658    14.8631    28.7230 CH_sp2        1 RES
    1057 _CH         37.7829    15.2991    15.0093 CH_sp2        1 RES
    1058 _CH         39.1045    14.8376    14.9949 CH_sp2        1 RES
    1059 _CH         40.1642    15.7506    14.9347 CH_sp2        1 RES
    1060 _CH         39.9021    17.1251    14.8890 CH_sp2        1 RES
    1061 _CH         38.5804    17.5866    14.9034 CH_sp2        1 RES
    1062 _CH         37.5208    16.6736    14.9635 CH_sp2        1 RES
    1063 _CH         18.3164     7.3696    16.9943 CH_sp2        1 RES
    1064 _CH         19.6288     7.5129    17.4605 CH_sp2        1 RES
    1065 _CH         20.5348     6.4527    17.3379 CH_sp2        1 RES
    1066 _CH         20.1286     5.2492    16.7493 CH_sp2        1 RES
    1067 _CH         18.8163     5.1059    16.2832 CH_sp2        1 RES
    1068 _CH         17.9102     6.1661    16.4057 CH_sp2        1 RES
    1069 _CH         32.9995    27.9389    33.8998 CH_sp2        1 RES
    1070 _CH         33.8499    26.8387    34.0620 CH_sp2        1 RES
    1071 _CH         33.3397    25.5389    33.9616 CH_sp2        1 RES
    1072 _CH         31.9791    25.3392    33.6990 CH_sp2        1 RES
    1073 _CH         31.1287    26.4394    33.5368 CH_sp2        1 RES
    1074 _CH         31.6389    27.7393    33.6372 CH_sp2        1 RES
    1075 _CH         35.5358     7.4739     9.0264 CH_sp2        1 RES
    1076 _CH         34.9980     6.2545     9.4553 CH_sp2        1 RES
    1077 _CH         34.3217     5.4300     8.5481 CH_sp2        1 RES
    1078 _CH         34.1832     5.8249     7.2121 CH_sp2        1 RES
    1079 _CH         34.7210     7.0443     6.7833 CH_sp2        1 RES
    1080 _CH         35.3973     7.8688     7.6904 CH_sp2        1 RES
    1081 _CH         29.6691    14.7189    33.1742 CH_sp2        1 RES
    1082 _CH         30.5679    15.3796    34.0201 CH_sp2        1 RES
    1083 _CH         31.8240    14.8194    34.2816 CH_sp2        1 RES
    1084 _CH         32.1813    13.5985    33.6971 CH_sp2        1 RES
    1085 _CH         31.2825    12.9378    32.8511 CH_sp2        1 RES
    1086 _CH         30.0264    13.4980    32.5897 CH_sp2        1 RES
    1087 _CH         33.1323    23.3714    33.3867 CH_sp2        1 RES
    1088 _CH         32.5965    23.6085    32.1152 CH_sp2        1 RES
    1089 _CH         32.9914    22.8164    31.0304 CH_sp2        1 RES
    1090 _CH         33.9219    21.7872    31.2171 CH_sp2        1 RES
    1091 _CH         34.4577    21.5502    32.4886 CH_sp2        1 RES
    1092 _CH         34.0629    22.3422    33.5734 CH_sp2        1 RES
    1093 _CH         28.6524    11.3434    11.6833 CH_sp2        1 RES
    1094 _CH         30.0104    11.1696    11.3909 CH_sp2        1 RES
    1095 _CH         30.9840    11.7139    12.2370 CH_sp2        1 RES
    1096 _CH         30.5995    12.4320    13.3757 CH_sp2        1 RES
    1097 _CH         29.2414    12.6058    13.6681 CH_sp2        1 RES
    1098 _CH         28.2679    12.0615    12.8220 CH_sp2        1 RES
    1099 _CH         33.9447    19.9256     3.9017 CH_sp2        1 RES
    1100 _CH         34.0982    20.8299     2.8441 CH_sp2        1 RES
    1101 _CH         35.2254    20.7552     2.0171 CH_sp2        1 RES
    1102 _CH         36.1991    19.7760     2.2478 CH_sp2        1 RES
    1103 _CH         36.0456    18.8716     3.3054 CH_sp2        1 RES
    1104 _CH         34.9184    18.9464     4.1324 CH_sp2        1 RES
    1105 _CH         36.5728     8.7796    23.4962 CH_sp2        1 RES
    1106 _CH         37.8587     9.3330    23.4997 CH_sp2        1 RES
    1107 _CH         38.0225    10.7234    23.5073 CH_sp2        1 RES
    1108 _CH         36.9002    11.5603    23.5113 CH_sp2        1 RES
    1109 _CH         35.6142    11.0069    23.5078 CH_sp2        1 RES
    1110 _CH         35.4505     9.6165    23.5003 CH_sp2        1 RES
    1111 _CH         10.5251    13.2621    34.5764 CH_sp2        1 RES
    1112 _CH          9.2967    12.6196    34.3807 CH_sp2        1 RES
    1113 _CH          9.0121    11.4306    35.0627 CH_sp2        1 RES
    1114 _CH          9.9559    10.8841    35.9405 CH_sp2        1 RES
    1115 _CH         11.1843    11.5265    36.1363 CH_sp2        1 RES
    1116 _CH         11.4689    12.7156    35.4542 CH_sp2        1 RES
    1117 _CH         26.7204    23.2290     6.7959 CH_sp2        1 RES
    1118 _CH         26.1195    21.9969     6.5112 CH_sp2        1 RES
    1119 _CH         24.7270    21.9068     6.3979 CH_sp2        1 RES
    1120 _CH         23.9354    23.0488     6.5692 CH_sp2        1 RES
    1121 _CH         24.5363    24.2808     6.8538 CH_sp2        1 RES
    1122 _CH         25.9288    24.3709     6.9671 CH_sp2        1 RES
    1123 _CH         22.7648    22.5588    22.8688 CH_sp2        1 RES
    1124 _CH         23.3438    22.7910    21.6155 CH_sp2        1 RES
    1125 _CH         22.9773    22.0025    20.5181 CH_sp2        1 RES
    1126 _CH         22.0318    20.9819    20.6742 CH_sp2        1 RES
    1127 _CH         21.4528    20.7497    21.9275 CH_sp2        1 RES
    1128 _CH         21.8193    21.5381    23.0248 CH_sp2        1 RES
    1129 _CH         26.3592    19.1657    12.0653 CH_sp2        1 RES
    1130 _CH         25.6705    17.9468    12.0754 CH_sp2        1 RES
    1131 _CH         26.3810    16.7410    12.0411 CH_sp2        1 RES
    1132 _CH         27.7803    16.7541    11.9967 CH_sp2        1 RES
    1133 _CH         28.4690    17.9729    11.9866 CH_sp2        1 RES
    1134 _CH         27.7585    19.1787    12.0208 CH_sp2        1 RES
    1135 _CH          8.9701    17.6643    33.4878 CH_sp2        1 RES
    1136 _CH         10.2465    17.0996    33.5967 CH_sp2        1 RES
    1137 _CH         10.4191    15.7209    33.4247 CH_sp2        1 RES
    1138 _CH          9.3152    14.9070    33.1438 CH_sp2        1 RES
    1139 _CH          8.0387    15.4717    33.0350 CH_sp2        1 RES
    1140 _CH          7.8662    16.8503    33.2070 CH_sp2        1 RES
    1141 _CH         35.1904     7.4875    21.6283 CH_sp2        1 RES
    1142 _CH         35.9222     6.3402    21.9571 CH_sp2        1 RES
    1143 _CH         35.4868     5.0832    21.5207 CH_sp2        1 RES
    1144 _CH         34.3196     4.9735    20.7555 CH_sp2        1 RES
    1145 _CH         33.5877     6.1209    20.4267 CH_sp2        1 RES
    1146 _CH         34.0232     7.3778    20.8631 CH_sp2        1 RES
    1147 _CH         26.9053     8.1820    10.6778 CH_sp2        1 RES
    1148 _CH         25.6005     7.6748    10.6661 CH_sp2        1 RES
    1149 _CH         24.5091     8.5510    10.6304 CH_sp2        1 RES
    1150 _CH         24.7227     9.9344    10.6063 CH_sp2        1 RES
    1151 _CH         26.0275    10.4416    10.6179 CH_sp2        1 RES
    1152 _CH         27.1188     9.5654    10.6537 CH_sp2        1 RES
    1153 _CH         19.5999    19.2370    10.1942 CH_sp2        1 RES
    1154 _CH         19.7964    18.3062    11.2213 CH_sp2        1 RES
    1155 _CH         18.8540    18.1897    12.2501 CH_sp2        1 RES
    1156 _CH         17.7152    19.0040    12.2518 CH_sp2        1 RES
    1157 _CH         17.5188    19.9349    11.2247 CH_sp2        1 RES
    1158 _CH         18.4612    20.0514    10.1959 CH_sp2        1 RES
    1159 _CH         35.0564    38.1695    16.5138 CH_sp2        1 RES
    1160 _CH         35.9278    37.2519    17.1127 CH_sp2        1 RES
    1161 _CH         37.2632    37.6030    17.3440 CH_sp2        1 RES
    1162 _CH         37.7272    38.8717    16.9765 CH_sp2        1 RES
    1163 _CH         36.8558    39.7893    16.3776 CH_sp2        1 RES
    1164 _CH         35.5204    39.4382    16.1462 CH_sp2        1 RES
    1165 _CH          4.0494    31.2127    34.4535 CH_sp2        1 RES
    1166 _CH          4.9901    32.0264    35.0962 CH_sp2        1 RES
    1167 _CH          5.5161    31.6436    36.3359 CH_sp2        1 RES
    1168 _CH          5.1012    30.4472    36.9330 CH_sp2        1 RES
    1169 _CH          4.1605    29.6335    36.2903 CH_sp2        1 RES
    1170 _CH          3.6346    30.0163    35.0506 CH_sp2        1 RES
    1171 _CH         35.4276    10.2302    18.7334 CH_sp2        1 RES
    1172 _CH         35.9049    10.2143    20.0494 CH_sp2        1 RES
    1173 _CH         36.3795     9.0212    20.6075 CH_sp2        1 RES
    1174 _CH         36.3767     7.8441    19.8496 CH_sp2        1 RES
    1175 _CH         35.8994     7.8600    18.5336 CH_sp2        1 RES
    1176 _CH         35.4248     9.0530    17.9755 CH_sp2        1 RES
    1177 _CH         30.2661     7.5710     9.8348 CH_sp2        1 RES
    1178 _CH         30.9263     6.5567     9.1310 CH_sp2        1 RES
    1179 _CH         32.0845     6.8506     8.4015 CH_sp2        1 RES
    1180 _CH         32.5826     8.1587     8.3758 CH_sp2        1 RES
    1181 _CH         31.9225     9.1730     9.0796 CH_sp2        1 RES
    1182 _CH         30.7642     8.8792     9.8091 CH_sp2        1 RES
    1183 _CH         12.4406    12.7483    31.8602 CH_sp2        1 RES
    1184 _CH         11.1709    12.9781    32.4034 CH_sp2        1 RES
    1185 _CH         10.0388    12.4204    31.7973 CH_sp2        1 RES
    1186 _CH         10.1764    11.6329    30.6480 CH_sp2        1 RES
    1187 _CH         11.4461    11.4031    30.1048 CH_sp2        1 RES
    1188 _CH         12.5782    11.9608    30.7109 CH_sp2        1 RES
    1189 _CH         21.6767     6.4156     4.0590 CH_sp2        1 RES
    1190 _CH         20.8816     7.3913     4.6721 CH_sp2        1 RES
    1191 _CH         21.4650     8.5706     5.1503 CH_sp2        1 RES
    1192 _CH         22.8435     8.7744     5.0154 CH_sp2        1 RES
    1193 _CH         23.6386     7.7987     4.4023 CH_sp2        1 RES
    1194 _CH         23.0552     6.6194     3.9241 CH_sp2        1 RES
    1195 _CH         16.4404    16.7036    17.1397 CH_sp2        1 RES
    1196 _CH         17.1588    17.2178    16.0536 CH_sp2        1 RES
    1197 _CH         16.5779    18.1855    15.2252 CH_sp2        1 RES
    1198 _CH         15.2786    18.6388    15.4828 CH_sp2        1 RES
    1199 _CH         14.5602    18.1246    16.5688 CH_sp2        1 RES
    1200 _CH         15.1411    17.1570    17.3972 CH_sp2        1 RES
    1201 _CH         13.8398    22.8538    33.6176 CH_sp2        1 RES
    1202 _CH         14.8630    23.7364    33.2515 CH_sp2        1 RES
    1203 _CH         14.5529    25.0457    32.8647 CH_sp2        1 RES
    1204 _CH         13.2197    25.4724    32.8440 CH_sp2        1 RES
    1205 _CH         12.1965    24.5897    33.2101 CH_sp2        1 RES
    1206 _CH         12.5066    23.2804    33.5969 CH_sp2        1 RES
    1207 _CH         17.1298    17.4474     3.1929 CH_sp2        1 RES
    1208 _CH         16.1456    18.3328     2.7375 CH_sp2        1 RES
    1209 _CH         14.9753    17.8368     2.1506 CH_sp2        1 RES
    1210 _CH         14.7893    16.4555     2.0191 CH_sp2        1 RES
    1211 _CH         15.7735    15.5701     2.4745 CH_sp2        1 RES
    1212 _CH         16.9438    16.0661     3.0614 CH_sp2        1 RES
    1213 _CH         28.8185    18.5697    31.7066 CH_sp2        1 RES
    1214 _CH         28.5311    17.9323    30.4937 CH_sp2        1 RES
    1215 _CH         29.1751    16.7340    30.1629 CH_sp2        1 RES
    1216 _CH         30.1064    16.1732    31.0450 CH_sp2        1 RES
    1217 _CH         30.3938    16.8106    32.2579 CH_sp2        1 RES
    1218 _CH         29.7498    18.0089    32.5887 CH_sp2        1 RES
    1219 _CH         27.2665    15.5474    15.9171 CH_sp2        1 RES
    1220 _CH         26.0218    16.0750    15.5532 CH_sp2        1 RES
    1221 _CH         25.8651    17.4579    15.4014 CH_sp2        1 RES
    1222 _CH         26.9530    18.3131    15.6134 CH_sp2        1 RES
    1223 _CH         28.1977    17.7855    15.9772 CH_sp2        1 RES
    1224 _CH         28.3544    16.4026    16.1291 CH_sp2        1 RES
    1225 _CH         16.2555    38.9581    27.8122 CH_sp2        1 RES
    1226 _CH         15.5527    40.1689    27.8175 CH_sp2        1 RES
    1227 _CH         14.1528    40.1655    27.8320 CH_sp2        1 RES
    1228 _CH         13.4557    38.9515    27.8411 CH_sp2        1 RES
    1229 _CH         14.1585    37.7407    27.8357 CH_sp2        1 RES
    1230 _CH         15.5585    37.7440    27.8213 CH_sp2        1 RES
    1231 _CH         30.7608    37.4177    19.6338 CH_sp2        1 RES
    1232 _CH         29.8376    36.5647    19.0172 CH_sp2        1 RES
    1233 _CH         29.0806    35.6763    19.7903 CH_sp2        1 RES
    1234 _CH         29.2467    35.6408    21.1799 CH_sp2        1 RES
    1235 _CH         30.1699    36.4938    21.7965 CH_sp2        1 RES
    1236 _CH         30.9269    37.3822    21.0235 CH_sp2        1 RES
    1237 _CH         33.6287    14.0225    36.9094 CH_sp2        1 RES
    1238 _CH         32.6468    15.0185    36.9733 CH_sp2        1 RES
    1239 _CH         32.9068    16.2921    36.4533 CH_sp2        1 RES
    1240 _CH         34.1486    16.5697    35.8695 CH_sp2        1 RES
    1241 _CH         35.1305    15.5738    35.8056 CH_sp2        1 RES
    1242 _CH         34.8705    14.3002    36.3256 CH_sp2        1 RES
    1243 _CH          5.4822     3.5354     5.0274 CH_sp2        1 RES
    1244 _CH          5.5154     4.9041     4.7345 CH_sp2        1 RES
    1245 _CH          4.3200     5.6175     4.5867 CH_sp2        1 RES
    1246 _CH          3.0913     4.9624     4.7318 CH_sp2        1 RES
    1247 _CH          3.0580     3.5938     5.0247 CH_sp2        1 RES
    1248 _CH          4.2534     2.8803     5.1725 CH_sp2        1 RES
    1249 _CH         38.2659    13.7532     9.8832 CH_sp2        1 RES
    1250 _CH         36.9640    14.2005     9.6282 CH_sp2        1 RES
    1251 _CH         36.7206    15.5630     9.4175 CH_sp2        1 RES
    1252 _CH         37.7791    16.4782     9.4619 CH_sp2        1 RES
    1253 _CH         39.0810    16.0309     9.7170 CH_sp2        1 RES
    1254 _CH         39.3244    14.6684     9.9276 CH_sp2        1 RES
    1255 _CH         34.9672    33.0082    13.9983 CH_sp2        1 RES
    1256 _CH         36.2418    33.4172    13.5883 CH_sp2        1 RES
    1257 _CH         36.4137    34.0256    12.3392 CH_sp2        1 RES
    1258 _CH         35.3109    34.2250    11.5001 CH_sp2        1 RES
    1259 _CH         34.0363    33.8160    11.9100 CH_sp2        1 RES
    1260 _CH         33.8644    33.2076    13.1591 CH_sp2        1 RES
    1261 _CH          6.9891    11.2722     6.7874 CH_sp2        1 RES
    1262 _CH          6.0884    12.3027     6.4927 CH_sp2        1 RES
    1263 _CH          4.8359    12.3376     7.1172 CH_sp2        1 RES
    1264 _CH          4.4842    11.3420     8.0365 CH_sp2        1 RES
    1265 _CH          5.3849    10.3115     8.3312 CH_sp2        1 RES
    1266 _CH          6.6374    10.2766     7.7066 CH_sp2        1 RES
    1267 _CH         16.6960    38.5778    15.0135 CH_sp2        1 RES
    1268 _CH         17.0339    37.2200    15.0607 CH_sp2        1 RES
    1269 _CH         18.3175    36.8047    14.6864 CH_sp2        1 RES
    1270 _CH         19.2630    37.7472    14.2650 CH_sp2        1 RES
    1271 _CH         18.9251    39.1050    14.2178 CH_sp2        1 RES
    1272 _CH         17.6416    39.5203    14.5921 CH_sp2        1 RES
    1273 _CH         13.2504    26.8678    29.5916 CH_sp2        1 RES
    1274 _CH         12.7603    27.8731    28.7495 CH_sp2        1 RES
    1275 _CH         11.4049    27.8941    28.3997 CH_sp2        1 RES
    1276 _CH         10.5396    26.9097    28.8918 CH_sp2        1 RES
    1277 _CH         11.0297    25.9043    29.7339 CH_sp2        1 RES
    1278 _CH         12.3851    25.8834    30.0837 CH_sp2        1 RES
    1279 _CH         21.8105     5.6857    12.9865 CH_sp2        1 RES
    1280 _CH         20.7925     5.5453    13.9373 CH_sp2        1 RES
    1281 _CH         20.3982     6.6454    14.7082 CH_sp2        1 RES
    1282 _CH         21.0219     7.8859    14.5283 CH_sp2        1 RES
    1283 _CH         22.0399     8.0262    13.5775 CH_sp2        1 RES
    1284 _CH         22.4342     6.9261    12.8066 CH_sp2        1 RES
    1285 _CH         17.4022    33.1512    28.2132 CH_sp2        1 RES
    1286 _CH         17.2592    32.5689    29.4784 CH_sp2        1 RES
    1287 _CH         17.0177    33.3755    30.5969 CH_sp2        1 RES
    1288 _CH         16.9191    34.7643    30.4504 CH_sp2        1 RES
    1289 _CH         17.0620    35.3466    29.1853 CH_sp2        1 RES
    1290 _CH         17.3035    34.5400    28.0667 CH_sp2        1 RES
    1291 _CH         26.6600    29.0496    31.6840 CH_sp2        1 RES
    1292 _CH         26.9597    27.8456    31.0355 CH_sp2        1 RES
    1293 _CH         28.2851    27.4008    30.9626 CH_sp2        1 RES
    1294 _CH         29.3109    28.1601    31.5383 CH_sp2        1 RES
    1295 _CH         29.0112    29.3641    32.1868 CH_sp2        1 RES
    1296 _CH         27.6858    29.8088    32.2597 CH_sp2        1 RES
    1297 _CH         15.2078    18.9326    33.2523 CH_sp2        1 RES
    1298 _CH         14.7144    17.6494    33.5166 CH_sp2        1 RES
    1299 _CH         13.4120    17.4868    34.0037 CH_sp2        1 RES
    1300 _CH         12.6029    18.6074    34.2263 CH_sp2        1 RES
    1301 _CH         13.0963    19.8906    33.9619 CH_sp2        1 RES
    1302 _CH         14.3987    20.0532    33.4749 CH_sp2        1 RES
    1303 _CH         38.1221    17.9530    23.2853 CH_sp2        1 RES
    1304 _CH         36.8769    17.3341    23.4484 CH_sp2        1 RES
    1305 _CH         36.0833    17.0524    22.3300 CH_sp2        1 RES
    1306 _CH         36.5349    17.3896    21.0484 CH_sp2        1 RES
    1307 _CH         37.7800    18.0085    20.8853 CH_sp2        1 RES
    1308 _CH         38.5736    18.2902    22.0037 CH_sp2        1 RES
    1309 _CH         36.1160    29.6136    18.0868 CH_sp2        1 RES
    1310 _CH         36.2824    28.2255    18.0128 CH_sp2        1 RES
    1311 _CH         35.3678    27.4483    17.2920 CH_sp2        1 RES
    1312 _CH         34.2868    28.0592    16.6453 CH_sp2        1 RES
    1313 _CH         34.1204    29.4473    16.7194 CH_sp2        1 RES
    1314 _CH         35.0350    30.2245    17.4401 CH_sp2        1 RES
    1315 _CH         13.6970    30.4500    17.3137 CH_sp2        1 RES
    1316 _CH         12.5428    31.2049    17.5548 CH_sp2        1 RES
    1317 _CH         11.8318    31.7582    16.4832 CH_sp2        1 RES
    1318 _CH         12.2750    31.5567    15.1706 CH_sp2        1 RES
    1319 _CH         13.4291    30.8018    14.9295 CH_sp2        1 RES
    1320 _CH         14.1401    30.2485    16.0011 CH_sp2        1 RES
    1321 _CH         21.7133    38.9518    15.7950 CH_sp2        1 RES
    1322 _CH         23.0800    39.2530    15.7594 CH_sp2        1 RES
    1323 _CH         23.8516    39.1428    16.9225 CH_sp2        1 RES
    1324 _CH         23.2563    38.7314    18.1210 CH_sp2        1 RES
    1325 _CH         21.8896    38.4303    18.1565 CH_sp2        1 RES
    1326 _CH         21.1180    38.5405    16.9935 CH_sp2        1 RES
    1327 _CH         27.4539    31.5862    11.9187 CH_sp2        1 RES
    1328 _CH         26.4604    32.5294    12.2075 CH_sp2        1 RES
    1329 _CH         26.7785    33.6792    12.9402 CH_sp2        1 RES
    1330 _CH         28.0901    33.8858    13.3841 CH_sp2        1 RES
    1331 _CH         29.0836    32.9426    13.0953 CH_sp2        1 RES
    1332 _CH         28.7655    31.7928    12.3626 CH_sp2        1 RES
    1333 _CH          6.6049    19.2240    20.5094 CH_sp2        1 RES
    1334 _CH          7.7255    18.5337    20.9869 CH_sp2        1 RES
    1335 _CH          8.9717    18.7137    20.3750 CH_sp2        1 RES
    1336 _CH          9.0974    19.5839    19.2855 CH_sp2        1 RES
    1337 _CH          7.9769    20.2741    18.8080 CH_sp2        1 RES
    1338 _CH          6.7307    20.0942    19.4200 CH_sp2        1 RES
    1339 _CH         23.0367     9.0440    30.5432 CH_sp2        1 RES
    1340 _CH         21.9423     9.9019    30.7052 CH_sp2        1 RES
    1341 _CH         20.7169     9.3961    31.1553 CH_sp2        1 RES
    1342 _CH         20.5859     8.0323    31.4434 CH_sp2        1 RES
    1343 _CH         21.6803     7.1744    31.2814 CH_sp2        1 RES
    1344 _CH         22.9057     7.6802    30.8313 CH_sp2        1 RES
    1345 _CH         21.5241     4.6128    19.6667 CH_sp2        1 RES
    1346 _CH         21.9224     5.6057    20.5698 CH_sp2        1 RES
    1347 _CH         22.1737     5.2756    21.9069 CH_sp2        1 RES
    1348 _CH         22.0268     3.9527    22.3409 CH_sp2        1 RES
    1349 _CH         21.6286     2.9598    21.4377 CH_sp2        1 RES
    1350 _CH         21.3773     3.2899    20.1006 CH_sp2        1 RES
    1351 _CH         35.1977    18.6859    12.8518 CH_sp2        1 RES
    1352 _CH         34.5759    17.4316    12.8650 CH_sp2        1 RES
    1353 _CH         35.3513    16.2661    12.8852 CH_sp2        1 RES
    1354 _CH         36.7485    16.3549    12.8922 CH_sp2        1 RES
    1355 _CH         37.3703    17.6092    12.8791 CH_sp2        1 RES
    1356 _CH         36.5949    18.7747    12.8589 CH_sp2        1 RES
    1357 _CH         24.0758    23.0541     4.3837 CH_sp2        1 RES
    1358 _CH         23.4836    21.7955     4.5426 CH_sp2        1 RES
    1359 _CH         23.2852    20.9697     3.4297 CH_sp2        1 RES
    1360 _CH         23.6790    21.4024     2.1578 CH_sp2        1 RES
    1361 _CH         24.2712    22.6610     1.9989 CH_sp2        1 RES
    1362 _CH         24.4696    23.4868     3.1118 CH_sp2        1 RES
    1363 _CH         35.7244    28.2209    28.7042 CH_sp2        1 RES
    1364 _CH         35.2825    26.9292    29.0145 CH_sp2        1 RES
    1365 _CH         35.1515    26.5366    30.3519 CH_sp2        1 RES
    1366 _CH         35.4625    27.4357    31.3790 CH_sp2        1 RES
    1367 _CH         35.9044    28.7273    31.0688 CH_sp2        1 RES
    1368 _CH         36.0354    29.1200    29.7314 CH_sp2        1 RES
    1369 _CH         35.9774    16.5815    27.6496 CH_sp2        1 RES
    1370 _CH         36.2969    17.3670    26.5356 CH_sp2        1 RES
    1371 _CH         35.3768    17.5054    25.4895 CH_sp2        1 RES
    1372 _CH         34.1373    16.8582    25.5574 CH_sp2        1 RES
    1373 _CH         33.8178    16.0726    26.6713 CH_sp2        1 RES
    1374 _CH         34.7378    15.9343    27.7174 CH_sp2        1 RES
    1375 _CH          9.7871    18.9303    14.3436 CH_sp2        1 RES
    1376 _CH         10.9058    19.2288    13.5565 CH_sp2        1 RES
    1377 _CH         12.0702    18.4607    13.6750 CH_sp2        1 RES
    1378 _CH         12.1160    17.3939    14.5805 CH_sp2        1 RES
    1379 _CH         10.9973    17.0954    15.3675 CH_sp2        1 RES
    1380 _CH          9.8329    17.8635    15.2491 CH_sp2        1 RES
    1381 _CH         10.0444    37.5617    35.7937 CH_sp2        1 RES
    1382 _CH         10.5727    38.8275    35.5133 CH_sp2        1 RES
    1383 _CH         10.0298    39.5992    34.4790 CH_sp2        1 RES
    1384 _CH          8.9586    39.1050    33.7251 CH_sp2        1 RES
    1385 _CH          8.4303    37.8392    34.0055 CH_sp2        1 RES
    1386 _CH          8.9732    37.0676    35.0398 CH_sp2        1 RES
    1387 _CH         28.6385     8.7963    16.3757 CH_sp2        1 RES
    1388 _CH         29.5565     7.7400    16.3366 CH_sp2        1 RES
    1389 _CH         30.5651     7.6528    17.3036 CH_sp2        1 RES
    1390 _CH         30.6557     8.6220    18.3098 CH_sp2        1 RES
    1391 _CH         29.7378     9.6784    18.3490 CH_sp2        1 RES
    1392 _CH         28.7292     9.7655    17.3820 CH_sp2        1 RES
    1393 _CH         34.4453    10.0840     4.2360 CH_sp2        1 RES
    1394 _CH         34.1109    10.1412     2.8777 CH_sp2        1 RES
    1395 _CH         33.9554    11.3812     2.2467 CH_sp2        1 RES
    1396 _CH         34.1342    12.5641     2.9740 CH_sp2        1 RES
    1397 _CH         34.4686    12.5069     4.3323 CH_sp2        1 RES
    1398 _CH         34.6241    11.2668     4.9633 CH_sp2        1 RES
    1399 _CH         15.8425    14.0459    35.0526 CH_sp2        1 RES
    1400 _CH         15.2509    15.3093    34.9349 CH_sp2        1 RES
    1401 _CH         13.8586    15.4394    35.0033 CH_sp2        1 RES
    1402 _CH         13.0580    14.3061    35.1894 CH_sp2        1 RES
    1403 _CH         13.6496    13.0428    35.3071 CH_sp2        1 RES
    1404 _CH         15.0418    12.9127    35.2387 CH_sp2        1 RES
    1405 _CH          2.3124    29.9819    38.6577 CH_sp2        1 RES
    1406 _CH          2.0484    30.2979    37.3197 CH_sp2        1 RES
    1407 _CH          2.0218    29.2852    36.3534 CH_sp2        1 RES
    1408 _CH          2.2591    27.9565    36.7252 CH_sp2        1 RES
    1409 _CH          2.5231    27.6405    38.0633 CH_sp2        1 RES
    1410 _CH          2.5498    28.6532    39.0296 CH_sp2        1 RES
    1411 _CH         26.9825    14.7372     5.6250 CH_sp2        1 RES
    1412 _CH         26.6238    15.6967     4.6707 CH_sp2        1 RES
    1413 _CH         25.3121    16.1839     4.6267 CH_sp2        1 RES
    1414 _CH         24.3590    15.7116     5.5369 CH_sp2        1 RES
    1415 _CH         24.7176    14.7521     6.4912 CH_sp2        1 RES
    1416 _CH         26.0294    14.2648     6.5352 CH_sp2        1 RES
    1417 _CH         35.5026     3.8544    29.0171 CH_sp2        1 RES
    1418 _CH         34.7109     4.4621    29.9989 CH_sp2        1 RES
    1419 _CH         34.6203     5.8579    30.0600 CH_sp2        1 RES
    1420 _CH         35.3213     6.6459    29.1394 CH_sp2        1 RES
    1421 _CH         36.1130     6.0381    28.1576 CH_sp2        1 RES
    1422 _CH         36.2037     4.6424    28.0964 CH_sp2        1 RES
    1423 _CH         22.8250     3.7969    34.4879 CH_sp2        1 RES
    1424 _CH         21.9169     4.0854    33.4622 CH_sp2        1 RES
    1425 _CH         21.8248     5.3868    32.9544 CH_sp2        1 RES
    1426 _CH         22.6408     6.3997    33.4724 CH_sp2        1 RES
    1427 _CH         23.5488     6.1112    34.4982 CH_sp2        1 RES
    1428 _CH         23.6409     4.8097    35.0060 CH_sp2        1 RES
    1429 _CH         27.9020     6.3392    32.3080 CH_sp2        1 RES
    1430 _CH         28.5324     5.1794    32.7743 CH_sp2        1 RES
    1431 _CH         27.9332     4.4137    33.7816 CH_sp2        1 RES
    1432 _CH         26.7035     4.8077    34.3226 CH_sp2        1 RES
    1433 _CH         26.0731     5.9675    33.8563 CH_sp2        1 RES
    1434 _CH         26.6723     6.7332    32.8490 CH_sp2        1 RES
    1435 _CH          5.4579    15.1175    30.6174 CH_sp2        1 RES
    1436 _CH          4.1027    15.4667    30.5783 CH_sp2        1 RES
    1437 _CH          3.7291    16.8125    30.4827 CH_sp2        1 RES
    1438 _CH          4.7107    17.8092    30.4263 CH_sp2        1 RES
    1439 _CH          6.0659    17.4600    30.4654 CH_sp2        1 RES
    1440 _CH          6.4395    16.1141    30.5610 CH_sp2        1 RES
    1441 _CH         31.6092    35.0087     3.0256 CH_sp2        1 RES
    1442 _CH         32.7256    34.1667     3.0933 CH_sp2        1 RES
    1443 _CH         33.9656    34.6086     2.6169 CH_sp2        1 RES
    1444 _CH         34.0892    35.8926     2.0727 CH_sp2        1 RES
    1445 _CH         32.9728    36.7346     2.0049 CH_sp2        1 RES
    1446 _CH         31.7328    36.2926     2.4813 CH_sp2        1 RES
    1447 _CH         12.9597    22.9055    11.4602 CH_sp2        1 RES
    1448 _CH         12.4235    22.0465    10.4934 CH_sp2        1 RES
    1449 _CH         12.0691    20.7371    10.8396 CH_sp2        1 RES
    1450 _CH         12.2507    20.2867    12.1526 CH_sp2        1 RES
    1451 _CH         12.7869    21.1456    13.1195 CH_sp2        1 RES
    1452 _CH         13.1414    22.4550    12.7733 CH_sp2        1 RES
    1453 _CH         31.1119    35.2753    28.7053 CH_sp2        1 RES
    1454 _CH         30.9430    34.7213    29.9799 CH_sp2        1 RES
    1455 _CH         30.0917    35.3384    30.9043 CH_sp2        1 RES
    1456 _CH         29.4092    36.5096    30.5541 CH_sp2        1 RES
    1457 _CH         29.5780    37.0636    29.2795 CH_sp2        1 RES
    1458 _CH         30.4294    36.4465    28.3551 CH_sp2        1 RES
    1459 _CH         20.6024    30.9986     4.8527 CH_sp2        1 RES
    1460 _CH         19.2170    31.1917     4.9121 CH_sp2        1 RES
    1461 _CH         18.3626    30.3637     4.1743 CH_sp2        1 RES
    1462 _CH         18.8935    29.3425     3.3772 CH_sp2        1 RES
    1463 _CH         20.2788    29.1494     3.3179 CH_sp2        1 RES
    1464 _CH         21.1333    29.9774     4.0556 CH_sp2        1 RES
    1465 _CH         37.5320    35.7491    31.1039 CH_sp2        1 RES
    1466 _CH         36.3608    34.9864    31.1845 CH_sp2        1 RES
    1467 _CH         35.3509    35.1513    30.2290 CH_sp2        1 RES
    1468 _CH         35.5123    36.0790    29.1929 CH_sp2        1 RES
    1469 _CH         36.6835    36.8416    29.1123 CH_sp2        1 RES
    1470 _CH         37.6934    36.6767    30.0678 CH_sp2        1 RES
    1471 _CH          3.3565    24.7078    38.3359 CH_sp2        1 RES
    1472 _CH          4.2989    25.5065    38.9947 CH_sp2        1 RES
    1473 _CH          5.1163    26.3745    38.2608 CH_sp2        1 RES
    1474 _CH          4.9913    26.4438    36.8682 CH_sp2        1 RES
    1475 _CH          4.0489    25.6451    36.2093 CH_sp2        1 RES
    1476 _CH          3.2316    24.7771    36.9432 CH_sp2        1 RES
    1477 _CH         15.2483    22.1668    23.8749 CH_sp2        1 RES
    1478 _CH         16.1697    22.1979    24.9286 CH_sp2        1 RES
    1479 _CH         16.8868    23.3700    25.1970 CH_sp2        1 RES
    1480 _CH         16.6825    24.5109    24.4118 CH_sp2        1 RES
    1481 _CH         15.7611    24.4798    23.3581 CH_sp2        1 RES
    1482 _CH         15.0441    23.3077    23.0897 CH_sp2        1 RES
    1483 _CH          2.9194    22.3675    28.1363 CH_sp2        1 RES
    1484 _CH          2.0230    22.9835    27.2549 CH_sp2        1 RES
    1485 _CH          2.0046    24.3784    27.1366 CH_sp2        1 RES
    1486 _CH          2.8827    25.1573    27.8997 CH_sp2        1 RES
    1487 _CH          3.7792    24.5413    28.7811 CH_sp2        1 RES
    1488 _CH          3.7975    23.1464    28.8994 CH_sp2        1 RES
    1489 _CH         23.9327    12.7800     2.0015 CH_sp2        1 RES
    1490 _CH         24.6090    13.9596     2.3349 CH_sp2        1 RES
    1491 _CH         24.1705    14.7369     3.4136 CH_sp2        1 RES
    1492 _CH         23.0557    14.3346     4.1588 CH_sp2        1 RES
    1493 _CH         22.3794    13.1550     3.8253 CH_sp2        1 RES
    1494 _CH         22.8179    12.3777     2.7467 CH_sp2        1 RES
    1495 _CH         30.7814    20.0047    34.4424 CH_sp2        1 RES
    1496 _CH         29.7928    19.3312    35.1698 CH_sp2        1 RES
    1497 _CH         30.0471    18.0516    35.6777 CH_sp2        1 RES
    1498 _CH         31.2899    17.4455    35.4584 CH_sp2        1 RES
    1499 _CH         32.2785    18.1191    34.7310 CH_sp2        1 RES
    1500 _CH         32.0243    19.3987    34.2231 CH_sp2        1 RES
    1501 _CH         21.1445    17.4290    28.2933 CH_sp2        1 RES
    1502 _CH         21.9431    18.5469    28.0237 CH_sp2        1 RES
    1503 _CH         21.6021    19.7957    28.5567 CH_sp2        1 RES
    1504 _CH         20.4624    19.9268    29.3592 CH_sp2        1 RES
    1505 _CH         19.6638    18.8089    29.6288 CH_sp2        1 RES
    1506 _CH         20.0049    17.5601    29.0959 CH_sp2        1 RES
    1507 _CH         12.1090    21.4795     6.4365 CH_sp2        1 RES
    1508 _CH         13.2514    20.6702     6.4273 CH_sp2        1 RES
    1509 _CH         13.1217    19.2762     6.4247 CH_sp2        1 RES
    1510 _CH         11.8497    18.6915     6.4313 CH_sp2        1 RES
    1511 _CH         10.7073    19.5008     6.4405 CH_sp2        1 RES
    1512 _CH         10.8370    20.8948     6.4431 CH_sp2        1 RES
    1513 _CH         27.0345    18.9323    33.7979 CH_sp2        1 RES
    1514 _CH         27.8839    20.0338    33.9569 CH_sp2        1 RES
    1515 _CH         27.4119    21.1984    34.5741 CH_sp2        1 RES
    1516 _CH         26.0905    21.2615    35.0323 CH_sp2        1 RES
    1517 _CH         25.2411    20.1600    34.8733 CH_sp2        1 RES
    1518 _CH         25.7131    18.9954    34.2561 CH_sp2        1 RES
    1519 _CH         10.8037    24.7235    18.3384 CH_sp2        1 RES
    1520 _CH         11.6689    25.0090    19.4013 CH_sp2        1 RES
    1521 _CH         12.8407    25.7403    19.1730 CH_sp2        1 RES
    1522 _CH         13.1473    26.1860    17.8818 CH_sp2        1 RES
    1523 _CH         12.2820    25.9005    16.8188 CH_sp2        1 RES
    1524 _CH         11.1102    25.1692    17.0471 CH_sp2        1 RES
    1525 _CH         17.8695    32.4763    21.2146 CH_sp2        1 RES
    1526 _CH         17.1705    33.6506    21.5186 CH_sp2        1 RES
    1527 _CH         17.8259    34.8868    21.4741 CH_sp2        1 RES
    1528 _CH         19.1804    34.9489    21.1257 CH_sp2        1 RES
    1529 _CH         19.8795    33.7746    20.8216 CH_sp2        1 RES
    1530 _CH         19.2240    32.5383    20.8661 CH_sp2        1 RES
    1531 _CH         40.0542     4.6377    18.8321 CH_sp2        1 RES
    1532 _CH         39.8639     6.0141    19.0031 CH_sp2        1 RES
    1533 _CH         38.6127     6.5043    19.3960 CH_sp2        1 RES
    1534 _CH         37.5519     5.6181    19.6179 CH_sp2        1 RES
    1535 _CH         37.7422     4.2417    19.4469 CH_sp2        1 RES
    1536 _CH         38.9933     3.7515    19.0539 CH_sp2        1 RES
    1537 _CH         21.0546    34.3678     7.8319 CH_sp2        1 RES
    1538 _CH         20.7870    33.7347     9.0515 CH_sp2        1 RES
    1539 _CH         21.0995    34.3756    10.2563 CH_sp2        1 RES
    1540 _CH         21.6796    35.6497    10.2414 CH_sp2        1 RES
    1541 _CH         21.9472    36.2828     9.0218 CH_sp2        1 RES
    1542 _CH         21.6347    35.6419     7.8170 CH_sp2        1 RES
    1543 _CH         13.0911    16.6753    21.5902 CH_sp2        1 RES
    1544 _CH         13.9235    16.6216    20.4658 CH_sp2        1 RES
    1545 _CH         13.4100    16.9260    19.1995 CH_sp2        1 RES
    1546 _CH         12.0640    17.2842    19.0575 CH_sp2        1 RES
    1547 _CH         11.2316    17.3378    20.1819 CH_sp2        1 RES
    1548 _CH         11.7452    17.0334    21.4482 CH_sp2        1 RES
    1549 _CH         31.6890    29.7241     6.4936 CH_sp2        1 RES
    1550 _CH         30.5252    28.9649     6.3233 CH_sp2        1 RES
    1551 _CH         29.7197    29.1618     5.1952 CH_sp2        1 RES
    1552 _CH         30.0781    30.1181     4.2375 CH_sp2        1 RES
    1553 _CH         31.2420    30.8773     4.4079 CH_sp2        1 RES
    1554 _CH         32.0474    30.6803     5.5359 CH_sp2        1 RES
    1555 _CH         18.5381    34.8603     7.3373 CH_sp2        1 RES
    1556 _CH         18.5426    36.2531     7.4787 CH_sp2        1 RES
    1557 _CH         17.3509    36.9321     7.7596 CH_sp2        1 RES
    1558 _CH         16.1547    36.2182     7.8990 CH_sp2        1 RES
    1559 _CH         16.1502    34.8254     7.7576 CH_sp2        1 RES
    1560 _CH         17.3418    34.1464     7.4768 CH_sp2        1 RES
    1561 _CH          8.3199    35.9687    27.4346 CH_sp2        1 RES
    1562 _CH          7.9734    37.2232    27.9504 CH_sp2        1 RES
    1563 _CH          6.9278    37.3356    28.8746 CH_sp2        1 RES
    1564 _CH          6.2287    36.1935    29.2829 CH_sp2        1 RES
    1565 _CH          6.5752    34.9389    28.7671 CH_sp2        1 RES
    1566 _CH          7.6208    34.8265    27.8430 CH_sp2        1 RES
    1567 _CH         23.0377    21.9525    39.6380 CH_sp2        1 RES
    1568 _CH         22.6268    20.6452    39.9249 CH_sp2        1 RES
    1569 _CH         23.1634    19.5694    39.2074 CH_sp2        1 RES
    1570 _CH         24.1109    19.8009    38.2031 CH_sp2        1 RES
    1571 _CH         24.5218    21.1081    37.9162 CH_sp2        1 RES
    1572 _CH         23.9852    22.1839    38.6336 CH_sp2        1 RES
    1573 _CH         12.9475    35.3266    34.3549 CH_sp2        1 RES
    1574 _CH         11.7678    35.4007    33.6047 CH_sp2        1 RES
    1575 _CH         10.8750    34.3224    33.5958 CH_sp2        1 RES
    1576 _CH         11.1619    33.1699    34.3372 CH_sp2        1 RES
    1577 _CH         12.3416    33.0958    35.0874 CH_sp2        1 RES
    1578 _CH         13.2344    34.1741    35.0963 CH_sp2        1 RES
    1579 _CH         36.6402    27.3929    26.3708 CH_sp2        1 RES
    1580 _CH         35.9648    28.6186    26.3330 CH_sp2        1 RES
    1581 _CH         34.5679    28.6511    26.4189 CH_sp2        1 RES
    1582 _CH         33.8462    27.4578    26.5428 CH_sp2        1 RES
    1583 _CH         34.5216    26.2320    26.5807 CH_sp2        1 RES
    1584 _CH         35.9186    26.1996    26.4947 CH_sp2        1 RES
    1585 _CH         13.4416     4.3860    29.1252 CH_sp2        1 RES
    1586 _CH         12.3981     3.4983    28.8371 CH_sp2        1 RES
    1587 _CH         11.0806     3.9663    28.7656 CH_sp2        1 RES
    1588 _CH         10.8066     5.3220    28.9823 CH_sp2        1 RES
    1589 _CH         11.8501     6.2097    29.2704 CH_sp2        1 RES
    1590 _CH         13.1676     5.7417    29.3419 CH_sp2        1 RES
    1591 _CH         16.8403    14.4560    22.3323 CH_sp2        1 RES
    1592 _CH         17.2881    15.7823    22.3523 CH_sp2        1 RES
    1593 _CH         17.9207    16.2905    23.4931 CH_sp2        1 RES
    1594 _CH         18.1055    15.4724    24.6141 CH_sp2        1 RES
    1595 _CH         17.6577    14.1461    24.5942 CH_sp2        1 RES
    1596 _CH         17.0251    13.6379    23.4533 CH_sp2        1 RES
    1597 _CH         11.5470    12.1386    21.4799 CH_sp2        1 RES
    1598 _CH         12.8631    11.7271    21.2378 CH_sp2        1 RES
    1599 _CH         13.1433    10.3739    21.0134 CH_sp2        1 RES
    1600 _CH         12.1074     9.4322    21.0311 CH_sp2        1 RES
    1601 _CH         10.7913     9.8438    21.2732 CH_sp2        1 RES
    1602 _CH         10.5112    11.1970    21.4976 CH_sp2        1 RES
    1603 _CH         27.3477    28.1413    10.1144 CH_sp2        1 RES
    1604 _CH         26.2697    28.2086     9.2237 CH_sp2        1 RES
    1605 _CH         25.8900    29.4398     8.6760 CH_sp2        1 RES
    1606 _CH         26.5883    30.6038     9.0191 CH_sp2        1 RES
    1607 _CH         27.6663    30.5364     9.9099 CH_sp2        1 RES
    1608 _CH         28.0460    29.3052    10.4575 CH_sp2        1 RES
    1609 _CH          5.0800     9.6942    36.0462 CH_sp2        1 RES
    1610 _CH          5.0835    11.0362    35.6476 CH_sp2        1 RES
    1611 _CH          6.2151    11.8298    35.8708 CH_sp2        1 RES
    1612 _CH          7.3431    11.2813    36.4927 CH_sp2        1 RES
    1613 _CH          7.3396     9.9392    36.8913 CH_sp2        1 RES
    1614 _CH          6.2080     9.1457    36.6681 CH_sp2        1 RES
    1615 _CH         39.5590    22.0144    32.0805 CH_sp2        1 RES
    1616 _CH         39.5534    23.3389    31.6271 CH_sp2        1 RES
    1617 _CH         39.0044    24.3497    32.4251 CH_sp2        1 RES
    1618 _CH         38.4610    24.0360    33.6766 CH_sp2        1 RES
    1619 _CH         38.4666    22.7115    34.1301 CH_sp2        1 RES
    1620 _CH         39.0156    21.7007    33.3321 CH_sp2        1 RES
    1621 _CH         14.7518    12.1016     6.7956 CH_sp2        1 RES
    1622 _CH         15.1112    10.8794     6.2150 CH_sp2        1 RES
    1623 _CH         15.2120     9.7303     7.0084 CH_sp2        1 RES
    1624 _CH         14.9534     9.8034     8.3824 CH_sp2        1 RES
    1625 _CH         14.5939    11.0256     8.9630 CH_sp2        1 RES
    1626 _CH         14.4932    12.1746     8.1696 CH_sp2        1 RES
    1627 _CH          9.3793    31.6552    34.2082 CH_sp2        1 RES
    1628 _CH          9.8358    30.7901    35.2098 CH_sp2        1 RES
    1629 _CH          9.2150    30.7825    36.4647 CH_sp2        1 RES
    1630 _CH          8.1377    31.6401    36.7179 CH_sp2        1 RES
    1631 _CH          7.6812    32.5052    35.7162 CH_sp2        1 RES
    1632 _CH          8.3020    32.5127    34.4614 CH_sp2        1 RES
    1633 _CH         13.4508    25.5545    36.7407 CH_sp2        1 RES
    1634 _CH         13.5234    24.3361    37.4265 CH_sp2        1 RES
    1635 _CH         12.5006    23.3907    37.2843 CH_sp2        1 RES
    1636 _CH         11.4053    23.6637    36.4562 CH_sp2        1 RES
    1637 _CH         11.3327    24.8821    35.7703 CH_sp2        1 RES
    1638 _CH         12.3555    25.8274    35.9126 CH_sp2        1 RES
    1639 _CH         35.9998    31.7221     3.0272 CH_sp2        1 RES
    1640 _CH         36.8342    30.6934     3.4807 CH_sp2        1 RES
    1641 _CH         36.2791    29.4933     3.9406 CH_sp2        1 RES
    1642 _CH         34.8897    29.3217     3.9469 CH_sp2        1 RES
    1643 _CH         34.0553    30.3504     3.4934 CH_sp2        1 RES
    1644 _CH         34.6104    31.5506     3.0335 CH_sp2        1 RES
    1645 _CH         32.2081    15.2813     8.1040 CH_sp2        1 RES
    1646 _CH         32.9905    14.7444     9.1334 CH_sp2        1 RES
    1647 _CH         34.3329    14.4241     8.8981 CH_sp2        1 RES
    1648 _CH         34.8929    14.6408     7.6335 CH_sp2        1 RES
    1649 _CH         34.1106    15.1777     6.6041 CH_sp2        1 RES
    1650 _CH         32.7682    15.4980     6.8394 CH_sp2        1 RES
    1651 _CH         18.6158    14.3142    15.8975 CH_sp2        1 RES
    1652 _CH         17.4135    14.9790    16.1670 CH_sp2        1 RES
    1653 _CH         16.4213    14.3499    16.9284 CH_sp2        1 RES
    1654 _CH         16.6313    13.0560    17.4202 CH_sp2        1 RES
    1655 _CH         17.8336    12.3913    17.1507 CH_sp2        1 RES
    1656 _CH         18.8258    13.0204    16.3893 CH_sp2        1 RES
    1657 _CH         18.5348    26.3984    36.0034 CH_sp2        1 RES
    1658 _CH         18.7841    27.7510    36.2645 CH_sp2        1 RES
    1659 _CH         18.9115    28.6567    35.2046 CH_sp2        1 RES
    1660 _CH         18.7894    28.2097    33.8835 CH_sp2        1 RES
    1661 _CH         18.5401    26.8571    33.6223 CH_sp2        1 RES
    1662 _CH         18.4128    25.9514    34.6823 CH_sp2        1 RES
    1663 _CH         25.6820    24.2957    27.6649 CH_sp2        1 RES
    1664 _CH         26.1826    22.9914    27.7557 CH_sp2        1 RES
    1665 _CH         25.3007    21.9054    27.8101 CH_sp2        1 RES
    1666 _CH         23.9183    22.1237    27.7737 CH_sp2        1 RES
    1667 _CH         23.4178    23.4280    27.6830 CH_sp2        1 RES
    1668 _CH         24.2996    24.5140    27.6286 CH_sp2        1 RES
    1669 _CH          9.8088    34.6111     7.1058 CH_sp2        1 RES
    1670 _CH          9.2145    35.8383     7.4232 CH_sp2        1 RES
    1671 _CH          9.3268    36.3560     8.7191 CH_sp2        1 RES
    1672 _CH         10.0335    35.6465     9.6975 CH_sp2        1 RES
    1673 _CH         10.6278    34.4194     9.3801 CH_sp2        1 RES
    1674 _CH         10.5155    33.9016     8.0842 CH_sp2        1 RES
    1675 _CH         27.2693    33.6903    28.4374 CH_sp2        1 RES
    1676 _CH         27.8593    33.5877    29.7029 CH_sp2        1 RES
    1677 _CH         27.7911    34.6634    30.5963 CH_sp2        1 RES
    1678 _CH         27.1329    35.8417    30.2243 CH_sp2        1 RES
    1679 _CH         26.5430    35.9443    28.9589 CH_sp2        1 RES
    1680 _CH         26.6112    34.8687    28.0654 CH_sp2        1 RES
    1681 _CH         27.5883    21.2402    20.9293 CH_sp2        1 RES
    1682 _CH         27.7208    22.5642    20.4939 CH_sp2        1 RES
    1683 _CH         26.5888    23.2889    20.1022 CH_sp2        1 RES
    1684 _CH         25.3243    22.6896    20.1458 CH_sp2        1 RES
    1685 _CH         25.1918    21.3656    20.5811 CH_sp2        1 RES
    1686 _CH         26.3238    20.6410    20.9729 CH_sp2        1 RES
    1687 _CH         20.2602    23.6106    17.3376 CH_sp2        1 RES
    1688 _CH         21.5673    23.5740    16.8374 CH_sp2        1 RES
    1689 _CH         22.4931    22.6654    17.3640 CH_sp2        1 RES
    1690 _CH         22.1119    21.7934    18.3907 CH_sp2        1 RES
    1691 _CH         20.8048    21.8300    18.8910 CH_sp2        1 RES
    1692 _CH         19.8790    22.7386    18.3644 CH_sp2        1 RES
    1693 _CH         13.7990    36.9986    12.1280 CH_sp2        1 RES
    1694 _CH         14.1374    38.1615    12.8302 CH_sp2        1 RES
    1695 _CH         15.4721    38.4090    13.1727 CH_sp2        1 RES
    1696 _CH         16.4684    37.4936    12.8130 CH_sp2        1 RES
    1697 _CH         16.1300    36.3306    12.1108 CH_sp2        1 RES
    1698 _CH         14.7953    36.0831    11.7683 CH_sp2        1 RES
    1699 _CH          2.0045    30.1228    32.8684 CH_sp2        1 RES
    1700 _CH          2.0042    28.9926    33.6946 CH_sp2        1 RES
    1701 _CH          2.0036    27.7119    33.1289 CH_sp2        1 RES
    1702 _CH          2.0033    27.5615    31.7370 CH_sp2        1 RES
    1703 _CH          2.0036    28.6917    30.9108 CH_sp2        1 RES
    1704 _CH          2.0042    29.9723    31.4765 CH_sp2        1 RES
    1705 _CH         18.0782    19.0112     1.9979 CH_sp2        1 RES
    1706 _CH         19.4593    19.2392     2.0187 CH_sp2        1 RES
    1707 _CH         19.9523    20.5495     2.0297 CH_sp2        1 RES
    1708 _CH         19.0642    21.6317     2.0200 CH_sp2        1 RES
    1709 _CH         17.6830    21.4036     1.9992 CH_sp2        1 RES
    1710 _CH         17.1900    20.0933     1.9882 CH_sp2        1 RES
    1711 _CH         40.1026    24.8025     7.8053 CH_sp2        1 RES
    1712 _CH         39.7153    26.0903     7.4157 CH_sp2        1 RES
    1713 _CH         38.5070    26.2820     6.7351 CH_sp2        1 RES
    1714 _CH         37.6860    25.1860     6.4440 CH_sp2        1 RES
    1715 _CH         38.0733    23.8983     6.8335 CH_sp2        1 RES
    1716 _CH         39.2816    23.7065     7.5142 CH_sp2        1 RES
    1717 _CH         26.7034     6.2485     4.5392 CH_sp2        1 RES
    1718 _CH         25.4088     5.9987     4.0684 CH_sp2        1 RES
    1719 _CH         25.2215     5.4366     2.8000 CH_sp2        1 RES
    1720 _CH         26.3288     5.1243     2.0023 CH_sp2        1 RES
    1721 _CH         27.6234     5.3741     2.4731 CH_sp2        1 RES
    1722 _CH         27.8107     5.9362     3.7415 CH_sp2        1 RES
    1723 _CH         28.3080    14.9617     3.4352 CH_sp2        1 RES
    1724 _CH         29.2015    15.4055     4.4174 CH_sp2        1 RES
    1725 _CH         29.9622    16.5607     4.2011 CH_sp2        1 RES
    1726 _CH         29.8294    17.2721     3.0027 CH_sp2        1 RES
    1727 _CH         28.9359    16.8283     2.0205 CH_sp2        1 RES
    1728 _CH         28.1752    15.6731     2.2368 CH_sp2        1 RES
    1729 _CH         10.2203    31.1328    21.2156 CH_sp2        1 RES
    1730 _CH          9.2175    30.1920    20.9524 CH_sp2        1 RES
    1731 _CH          9.4135    29.2172    19.9668 CH_sp2        1 RES
    1732 _CH         10.6123    29.1831    19.2445 CH_sp2        1 RES
    1733 _CH         11.6151    30.1239    19.5078 CH_sp2        1 RES
    1734 _CH         11.4191    31.0987    20.4933 CH_sp2        1 RES
    1735 _CH         30.4993     7.6132    34.0435 CH_sp2        1 RES
    1736 _CH         30.1231     8.2223    32.8403 CH_sp2        1 RES
    1737 _CH         28.9187     8.9316    32.7615 CH_sp2        1 RES
    1738 _CH         28.0905     9.0319    33.8857 CH_sp2        1 RES
    1739 _CH         28.4666     8.4228    35.0889 CH_sp2        1 RES
    1740 _CH         29.6711     7.7135    35.1677 CH_sp2        1 RES
    1741 _CH         19.7167    36.8498    10.7565 CH_sp2        1 RES
    1742 _CH         19.6854    36.1068    11.9427 CH_sp2        1 RES
    1743 _CH         18.9964    34.8889    11.9878 CH_sp2        1 RES
    1744 _CH         18.3388    34.4140    10.8467 CH_sp2        1 RES
    1745 _CH         18.3701    35.1571     9.6606 CH_sp2        1 RES
    1746 _CH         19.0591    36.3750     9.6155 CH_sp2        1 RES
    1747 _CH         24.1264     4.9823    32.3752 CH_sp2        1 RES
    1748 _CH         24.2184     5.9615    31.3788 CH_sp2        1 RES
    1749 _CH         24.8763     5.6768    30.1762 CH_sp2        1 RES
    1750 _CH         25.4422     4.4130    29.9701 CH_sp2        1 RES
    1751 _CH         25.3503     3.4339    30.9665 CH_sp2        1 RES
    1752 _CH         24.6924     3.7185    32.1690 CH_sp2        1 RES
    1753 _CH         25.8758    20.8316    23.1182 CH_sp2        1 RES
    1754 _CH         25.9640    22.1378    23.6144 CH_sp2        1 RES
    1755 _CH         26.1505    22.3548    24.9849 CH_sp2        1 RES
    1756 _CH         26.2486    21.2658    25.8591 CH_sp2        1 RES
    1757 _CH         26.1603    19.9596    25.3629 CH_sp2        1 RES
    1758 _CH         25.9739    19.7426    23.9925 CH_sp2        1 RES
    1759 _CH         35.1961    14.3559    33.3353 CH_sp2        1 RES
    1760 _CH         36.1500    13.9720    32.3852 CH_sp2        1 RES
    1761 _CH         36.4270    14.8056    31.2950 CH_sp2        1 RES
    1762 _CH         35.7501    16.0231    31.1550 CH_sp2        1 RES
    1763 _CH         34.7962    16.4069    32.1051 CH_sp2        1 RES
    1764 _CH         34.5192    15.5734    33.1952 CH_sp2        1 RES
    1765 _CH         26.4621    33.8015     4.0044 CH_sp2        1 RES
    1766 _CH         25.3927    33.5090     4.8593 CH_sp2        1 RES
    1767 _CH         25.0991    34.3618     5.9301 CH_sp2        1 RES
    1768 _CH         25.8749    35.5070     6.1460 CH_sp2        1 RES
    1769 _CH         26.9443    35.7995     5.2912 CH_sp2        1 RES
    1770 _CH         27.2379    34.9467     4.2203 CH_sp2        1 RES
    1771 _CH          2.8717    11.3841    31.7703 CH_sp2        1 RES
    1772 _CH          3.2217    10.2792    32.5557 CH_sp2        1 RES
    1773 _CH          4.4458    10.2629    33.2350 CH_sp2        1 RES
    1774 _CH          5.3198    11.3514    33.1289 CH_sp2        1 RES
    1775 _CH          4.9698    12.4562    32.3435 CH_sp2        1 RES
    1776 _CH          3.7457    12.4725    31.6642 CH_sp2        1 RES
    1777 _CH         14.1432    18.4075    11.4828 CH_sp2        1 RES
    1778 _CH         14.1959    17.1855    12.1640 CH_sp2        1 RES
    1779 _CH         13.1652    16.2512    12.0063 CH_sp2        1 RES
    1780 _CH         12.0818    16.5390    11.1676 CH_sp2        1 RES
    1781 _CH         12.0292    17.7610    10.4864 CH_sp2        1 RES
    1782 _CH         13.0599    18.6952    10.6441 CH_sp2        1 RES
    1783 _CH         24.5926    11.7025    19.8519 CH_sp2        1 RES
    1784 _CH         24.1767    12.3011    18.6566 CH_sp2        1 RES
    1785 _CH         24.8173    11.9811    17.4536 CH_sp2        1 RES
    1786 _CH         25.8737    11.0625    17.4459 CH_sp2        1 RES
    1787 _CH         26.2896    10.4639    18.6412 CH_sp2        1 RES
    1788 _CH         25.6490    10.7839    19.8442 CH_sp2        1 RES
    1789 _CH         14.0212     8.3965    34.2557 CH_sp2        1 RES
    1790 _CH         15.3362     8.0265    33.9494 CH_sp2        1 RES
    1791 _CH         16.3473     8.9944    33.9218 CH_sp2        1 RES
    1792 _CH         16.0434    10.3323    34.2004 CH_sp2        1 RES
    1793 _CH         14.7283    10.7023    34.5067 CH_sp2        1 RES
    1794 _CH         13.7172     9.7344    34.5344 CH_sp2        1 RES
    1795 _CH         12.8581    39.6784     6.1194 CH_sp2        1 RES
    1796 _CH         12.3800    39.7511     7.4332 CH_sp2        1 RES
    1797 _CH         11.5393    38.7472     7.9287 CH_sp2        1 RES
    1798 _CH         11.1767    37.6707     7.1104 CH_sp2        1 RES
    1799 _CH         11.6548    37.5980     5.7966 CH_sp2        1 RES
    1800 _CH         12.4955    38.6018     5.3011 CH_sp2        1 RES
    1801 _CH         29.2394    30.6733    22.8608 CH_sp2        1 RES
    1802 _CH         28.1693    30.3462    22.0194 CH_sp2        1 RES
    1803 _CH         27.5557    29.0921    22.1226 CH_sp2        1 RES
    1804 _CH         28.0121    28.1651    23.0671 CH_sp2        1 RES
    1805 _CH         29.0822    28.4921    23.9085 CH_sp2        1 RES
    1806 _CH         29.6959    29.7462    23.8053 CH_sp2        1 RES
    1807 _CH         36.9432    35.5356    22.2659 CH_sp2        1 RES
    1808 _CH         36.5483    34.1961    22.3642 CH_sp2        1 RES
    1809 _CH         37.4785    33.2174    22.7343 CH_sp2        1 RES
    1810 _CH         38.8036    33.5784    23.0062 CH_sp2        1 RES
    1811 _CH         39.1985    34.9179    22.9079 CH_sp2        1 RES
    1812 _CH         38.2683    35.8966    22.5378 CH_sp2        1 RES
    1813 _CH         26.7391    31.4502     6.5644 CH_sp2        1 RES
    1814 _CH         27.7477    30.5075     6.7966 CH_sp2        1 RES
    1815 _CH         29.0901    30.9051     6.8003 CH_sp2        1 RES
    1816 _CH         29.4238    32.2454     6.5718 CH_sp2        1 RES
    1817 _CH         28.4152    33.1881     6.3396 CH_sp2        1 RES
    1818 _CH         27.0728    32.7905     6.3359 CH_sp2        1 RES
    1819 _CH         34.4032    37.7512    30.8589 CH_sp2        1 RES
    1820 _CH         33.0296    37.7298    31.1288 CH_sp2        1 RES
    1821 _CH         32.3027    38.9260    31.1554 CH_sp2        1 RES
    1822 _CH         32.9494    40.1437    30.9122 CH_sp2        1 RES
    1823 _CH         34.3230    40.1651    30.6424 CH_sp2        1 RES
    1824 _CH         35.0499    38.9689    30.6157 CH_sp2        1 RES
    1825 _CH         18.9823    31.3925     7.9711 CH_sp2        1 RES
    1826 _CH         18.1384    31.6016     9.0685 CH_sp2        1 RES
    1827 _CH         18.6470    31.5113    10.3698 CH_sp2        1 RES
    1828 _CH         19.9993    31.2120    10.5736 CH_sp2        1 RES
    1829 _CH         20.8432    31.0030     9.4762 CH_sp2        1 RES
    1830 _CH         20.3346    31.0932     8.1750 CH_sp2        1 RES
    1831 _CH         34.0273    12.2332     8.4261 CH_sp2        1 RES
    1832 _CH         32.7171    12.0505     7.9679 CH_sp2        1 RES
    1833 _CH         32.3628    10.8635     7.3156 CH_sp2        1 RES
    1834 _CH         33.3186     9.8591     7.1216 CH_sp2        1 RES
    1835 _CH         34.6289    10.0418     7.5797 CH_sp2        1 RES
    1836 _CH         34.9832    11.2288     8.2320 CH_sp2        1 RES
    1837 _CH         33.1251    15.9640     4.0936 CH_sp2        1 RES
    1838 _CH         33.1010    16.2282     2.7190 CH_sp2        1 RES
    1839 _CH         32.5833    17.4408     2.2482 CH_sp2        1 RES
    1840 _CH         32.0897    18.3892     3.1521 CH_sp2        1 RES
    1841 _CH         32.1138    18.1249     4.5267 CH_sp2        1 RES
    1842 _CH         32.6315    16.9123     4.9975 CH_sp2        1 RES
    1843 _CH         34.4654    27.4520    22.6059 CH_sp2        1 RES
    1844 _CH         34.8785    28.0753    23.7895 CH_sp2        1 RES
    1845 _CH         35.9332    28.9955    23.7648 CH_sp2        1 RES
    1846 _CH         36.5750    29.2925    22.5565 CH_sp2        1 RES
    1847 _CH         36.1620    28.6691    21.3729 CH_sp2        1 RES
    1848 _CH         35.1072    27.7489    21.3976 CH_sp2        1 RES
    1849 _CH         39.2742    23.8491    25.7413 CH_sp2        1 RES
    1850 _CH         39.0629    23.5201    24.3971 CH_sp2        1 RES
    1851 _CH         38.6075    22.2419    24.0525 CH_sp2        1 RES
    1852 _CH         38.3633    21.2927    25.0522 CH_sp2        1 RES
    1853 _CH         38.5746    21.6217    26.3965 CH_sp2        1 RES
    1854 _CH         39.0301    22.8999    26.7410 CH_sp2        1 RES
    1855 _CH         37.8798    11.3913     8.9475 CH_sp2        1 RES
    1856 _CH         38.7651    12.0763     8.1066 CH_sp2        1 RES
    1857 _CH         39.8951    12.7051     8.6430 CH_sp2        1 RES
    1858 _CH         40.1398    12.6489    10.0202 CH_sp2        1 RES
    1859 _CH         39.2546    11.9640    10.8611 CH_sp2        1 RES
    1860 _CH         38.1246    11.3351    10.3248 CH_sp2        1 RES
    1861 _CH         26.2387    33.5476    36.7438 CH_sp2        1 RES
    1862 _CH         27.5896    33.8942    36.8666 CH_sp2        1 RES
    1863 _CH         27.9724    35.2406    36.8366 CH_sp2        1 RES
    1864 _CH         27.0043    36.2403    36.6838 CH_sp2        1 RES
    1865 _CH         25.6534    35.8937    36.5609 CH_sp2        1 RES
    1866 _CH         25.2707    34.5474    36.5909 CH_sp2        1 RES
    1867 _CH         19.1071    30.3703    31.8993 CH_sp2        1 RES
    1868 _CH         19.8079    30.6832    33.0701 CH_sp2        1 RES
    1869 _CH         20.4100    31.9392    33.2111 CH_sp2        1 RES
    1870 _CH         20.3113    32.8824    32.1812 CH_sp2        1 RES
    1871 _CH         19.6104    32.5695    31.0103 CH_sp2        1 RES
    1872 _CH         19.0083    31.3134    30.8694 CH_sp2        1 RES
    1873 _CH         21.8717     4.3455    24.5402 CH_sp2        1 RES
    1874 _CH         22.0233     2.9540    24.5641 CH_sp2        1 RES
    1875 _CH         20.8937     2.1270    24.5799 CH_sp2        1 RES
    1876 _CH         19.6126     2.6915    24.5718 CH_sp2        1 RES
    1877 _CH         19.4611     4.0831    24.5479 CH_sp2        1 RES
    1878 _CH         20.5906     4.9101    24.5321 CH_sp2        1 RES
    1879 _CH         23.6757    24.2011    10.8255 CH_sp2        1 RES
    1880 _CH         22.3790    24.4135    11.3087 CH_sp2        1 RES
    1881 _CH         21.7974    25.6837    11.2177 CH_sp2        1 RES
    1882 _CH         22.5126    26.7415    10.6436 CH_sp2        1 RES
    1883 _CH         23.8093    26.5291    10.1605 CH_sp2        1 RES
    1884 _CH         24.3909    25.2589    10.2515 CH_sp2        1 RES
    1885 _CH         39.1911    37.6157    27.4620 CH_sp2        1 RES
    1886 _CH         37.8575    37.8873    27.1337 CH_sp2        1 RES
    1887 _CH         37.4962    39.1567    26.6666 CH_sp2        1 RES
    1888 _CH         38.4685    40.1544    26.5277 CH_sp2        1 RES
    1889 _CH         39.8021    39.8828    26.8560 CH_sp2        1 RES
    1890 _CH         40.1634    38.6134    27.3232 CH_sp2        1 RES
    1891 _CH         17.2949     8.6878     9.7454 CH_sp2        1 RES
    1892 _CH         17.1513     9.0331     8.3963 CH_sp2        1 RES
    1893 _CH         17.8736    10.1101     7.8687 CH_sp2        1 RES
    1894 _CH         18.7395    10.8418     8.6902 CH_sp2        1 RES
    1895 _CH         18.8830    10.4964    10.0393 CH_sp2        1 RES
    1896 _CH         18.1607     9.4194    10.5669 CH_sp2        1 RES
    1897 _CH         28.2011    32.0492    16.6531 CH_sp2        1 RES
    1898 _CH         28.2538    31.0009    15.7267 CH_sp2        1 RES
    1899 _CH         27.1470    30.1607    15.5566 CH_sp2        1 RES
    1900 _CH         25.9874    30.3688    16.3129 CH_sp2        1 RES
    1901 _CH         25.9346    31.4171    17.2393 CH_sp2        1 RES
    1902 _CH         27.0415    32.2573    17.4094 CH_sp2        1 RES
    1903 _CH          6.9828    24.7802    35.5819 CH_sp2        1 RES
    1904 _CH          6.9125    25.0853    34.2174 CH_sp2        1 RES
    1905 _CH          7.8676    25.9298    33.6389 CH_sp2        1 RES
    1906 _CH          8.8929    26.4691    34.4249 CH_sp2        1 RES
    1907 _CH          8.9631    26.1640    35.7895 CH_sp2        1 RES
    1908 _CH          8.0081    25.3195    36.3680 CH_sp2        1 RES
    1909 _CH         16.1605    29.0089    28.9009 CH_sp2        1 RES
    1910 _CH         16.2048    28.0691    29.9376 CH_sp2        1 RES
    1911 _CH         16.1875    28.4960    31.2708 CH_sp2        1 RES
    1912 _CH         16.1258    29.8629    31.5673 CH_sp2        1 RES
    1913 _CH         16.0815    30.8027    30.5307 CH_sp2        1 RES
    1914 _CH         16.0988    30.3758    29.1975 CH_sp2        1 RES
    1915 _CH         22.7994    19.2974    23.2304 CH_sp2        1 RES
    1916 _CH         22.7407    18.0014    23.7568 CH_sp2        1 RES
    1917 _CH         23.2928    17.7311    25.0146 CH_sp2        1 RES
    1918 _CH         23.9037    18.7567    25.7460 CH_sp2        1 RES
    1919 _CH         23.9624    20.0526    25.2197 CH_sp2        1 RES
    1920 _CH         23.4103    20.3230    23.9619 CH_sp2        1 RES
    1921 _CH         26.3041    18.4784    18.4641 CH_sp2        1 RES
    1922 _CH         25.5165    18.8505    17.3680 CH_sp2        1 RES
    1923 _CH         25.4543    20.1925    16.9742 CH_sp2        1 RES
    1924 _CH         26.1797    21.1624    17.6763 CH_sp2        1 RES
    1925 _CH         26.9673    20.7904    18.7723 CH_sp2        1 RES
    1926 _CH         27.0295    19.4483    19.1662 CH_sp2        1 RES
    1927 _CH         39.6548    15.9221    38.4788 CH_sp2        1 RES
    1928 _CH         40.1693    16.5166    39.6372 CH_sp2        1 RES
    1929 _CH         40.1490    17.9094    39.7776 CH_sp2        1 RES
    1930 _CH         39.6140    18.7077    38.7595 CH_sp2        1 RES
    1931 _CH         39.0995    18.1133    37.6011 CH_sp2        1 RES
    1932 _CH         39.1198    16.7205    37.4608 CH_sp2        1 RES
    1933 _CH         17.6025    10.0242    26.4198 CH_sp2        1 RES
    1934 _CH         18.5550     9.7873    27.4180 CH_sp2        1 RES
    1935 _CH         19.9186     9.9220    27.1306 CH_sp2        1 RES
    1936 _CH         20.3296    10.2936    25.8450 CH_sp2        1 RES
    1937 _CH         19.3770    10.5305    24.8467 CH_sp2        1 RES
    1938 _CH         18.0135    10.3958    25.1341 CH_sp2        1 RES
    1939 _CH          8.0943    32.1872    30.1516 CH_sp2        1 RES
    1940 _CH          6.8923    31.5697    29.7853 CH_sp2        1 RES
    1941 _CH          5.7350    31.7860    30.5428 CH_sp2        1 RES
    1942 _CH          5.7797    32.6197    31.6667 CH_sp2        1 RES
    1943 _CH          6.9816    33.2371    32.0329 CH_sp2        1 RES
    1944 _CH          8.1389    33.0209    31.2754 CH_sp2        1 RES
    1945 _CH         34.4893     4.5888    24.8845 CH_sp2        1 RES
    1946 _CH         34.1052     3.7740    23.8128 CH_sp2        1 RES
    1947 _CH         35.0698     3.0453    23.1067 CH_sp2        1 RES
    1948 _CH         36.4184     3.1314    23.4723 CH_sp2        1 RES
    1949 _CH         36.8026     3.9462    24.5440 CH_sp2        1 RES
    1950 _CH         35.8380     4.6749    25.2501 CH_sp2        1 RES
    1951 _CH         15.2697    28.0758    25.5036 CH_sp2        1 RES
    1952 _CH         15.9746    27.1178    24.7650 CH_sp2        1 RES
    1953 _CH         17.2114    27.4437    24.1959 CH_sp2        1 RES
    1954 _CH         17.7434    28.7276    24.3652 CH_sp2        1 RES
    1955 _CH         17.0386    29.6855    25.1038 CH_sp2        1 RES
    1956 _CH         15.8018    29.3596    25.6730 CH_sp2        1 RES
    1957 _CH         20.0973    23.5035     4.2795 CH_sp2        1 RES
    1958 _CH         21.3315    22.8867     4.5166 CH_sp2        1 RES
    1959 _CH         21.3830    21.6581     5.1858 CH_sp2        1 RES
    1960 _CH         20.2002    21.0462     5.6179 CH_sp2        1 RES
    1961 _CH         18.9659    21.6631     5.3809 CH_sp2        1 RES
    1962 _CH         18.9145    22.8917     4.7117 CH_sp2        1 RES
    1963 _CH          8.0609    37.5422    17.3326 CH_sp2        1 RES
    1964 _CH          6.8690    38.2767    17.3181 CH_sp2        1 RES
    1965 _CH          5.6371    37.6117    17.3051 CH_sp2        1 RES
    1966 _CH          5.5970    36.2122    17.3066 CH_sp2        1 RES
    1967 _CH          6.7888    35.4778    17.3212 CH_sp2        1 RES
    1968 _CH          8.0207    36.1428    17.3341 CH_sp2        1 RES
    1969 _CH          4.8937     5.3910    38.3485 CH_sp2        1 RES
    1970 _CH          3.5810     5.2147    38.8021 CH_sp2        1 RES
    1971 _CH          2.9366     6.2444    39.4981 CH_sp2        1 RES
    1972 _CH          3.6049     7.4504    39.7406 CH_sp2        1 RES
    1973 _CH          4.9176     7.6268    39.2870 CH_sp2        1 RES
    1974 _CH          5.5620     6.5970    38.5909 CH_sp2        1 RES
    1975 _CH         34.5359    30.6857    27.9277 CH_sp2        1 RES
    1976 _CH         35.8744    30.3219    27.7375 CH_sp2        1 RES
    1977 _CH         36.8465    31.3093    27.5371 CH_sp2        1 RES
    1978 _CH         36.4801    32.6605    27.5270 CH_sp2        1 RES
    1979 _CH         35.1416    33.0243    27.7172 CH_sp2        1 RES
    1980 _CH         34.1696    32.0369    27.9176 CH_sp2        1 RES
    1981 _CH         35.4782    36.0156    13.2607 CH_sp2        1 RES
    1982 _CH         36.1327    36.9171    12.4128 CH_sp2        1 RES
    1983 _CH         35.8593    38.2872    12.5025 CH_sp2        1 RES
    1984 _CH         34.9313    38.7558    13.4402 CH_sp2        1 RES
    1985 _CH         34.2767    37.8544    14.2881 CH_sp2        1 RES
    1986 _CH         34.5502    36.4843    14.1984 CH_sp2        1 RES
    1987 _CH         37.2901    37.6522    24.3808 CH_sp2        1 RES
    1988 _CH         36.4611    36.6173    24.8300 CH_sp2        1 RES
    1989 _CH         37.0163    35.3872    25.2022 CH_sp2        1 RES
    1990 _CH         38.4005    35.1919    25.1252 CH_sp2        1 RES
    1991 _CH         39.2295    36.2268    24.6760 CH_sp2        1 RES
    1992 _CH         38.6743    37.4569    24.3038 CH_sp2        1 RES
    1993 _CH          6.6548    24.9532    18.3992 CH_sp2        1 RES
    1994 _CH          5.5380    25.5928    18.9502 CH_sp2        1 RES
    1995 _CH          5.4682    26.9910    18.9644 CH_sp2        1 RES
    1996 _CH          6.5152    27.7496    18.4275 CH_sp2        1 RES
    1997 _CH          7.6320    27.1100    17.8764 CH_sp2        1 RES
    1998 _CH          7.7018    25.7118    17.8623 CH_sp2        1 RES
    1999 _CH          5.8130    34.8242    21.5644 CH_sp2        1 RES
    2000 _CH          6.6915    35.9072    21.6885 CH_sp2        1 RES
    2001 _CH          7.9882    35.7043    22.1759 CH_sp2        1 RES
    2002 _CH          8.4063    34.4185    22.5391 CH_sp2        1 RES
    2003 _CH          7.5278    33.3356    22.4150 CH_sp2        1 RES
    2004 _CH          6.2311    33.5384    21.9276 CH_sp2        1 RES
    2005 _CH         10.9411     7.7177    36.4245 CH_sp2        1 RES
    2006 _CH         10.2223     6.5295    36.2473 CH_sp2        1 RES
    2007 _CH          9.1126     6.2555    37.0556 CH_sp2        1 RES
    2008 _CH          8.7217     7.1697    38.0413 CH_sp2        1 RES
    2009 _CH          9.4406     8.3579    38.2185 CH_sp2        1 RES
    2010 _CH         10.5503     8.6319    37.4101 CH_sp2        1 RES
    2011 _CH          8.5084     7.1268     3.8670 CH_sp2        1 RES
    2012 _CH          8.5827     7.3585     5.2457 CH_sp2        1 RES
    2013 _CH          7.4095     7.4537     6.0037 CH_sp2        1 RES
    2014 _CH          6.1620     7.3172     5.3830 CH_sp2        1 RES
    2015 _CH          6.0877     7.0855     4.0043 CH_sp2        1 RES
    2016 _CH          7.2609     6.9903     3.2463 CH_sp2        1 RES
    2017 _CH         38.1942     8.4754     5.5205 CH_sp2        1 RES
    2018 _CH         39.4081     9.1172     5.7937 CH_sp2        1 RES
    2019 _CH         39.4327    10.4970     6.0298 CH_sp2        1 RES
    2020 _CH         38.2435    11.2348     5.9928 CH_sp2        1 RES
    2021 _CH         37.0297    10.5930     5.7195 CH_sp2        1 RES
    2022 _CH         37.0050     9.2133     5.4834 CH_sp2        1 RES
    2023 _CH         35.9208    34.1694     3.9025 CH_sp2        1 RES
    2024 _CH         36.4188    34.0665     2.5981 CH_sp2        1 RES
    2025 _CH         37.3961    34.9628     2.1492 CH_sp2        1 RES
    2026 _CH         37.8754    35.9621     3.0046 CH_sp2        1 RES
    2027 _CH         37.3774    36.0650     4.3090 CH_sp2        1 RES
    2028 _CH         36.4001    35.1686     4.7579 CH_sp2        1 RES
    2029 _CH         36.4752    29.8977     6.4758 CH_sp2        1 RES
    2030 _CH         35.1208    29.5449     6.5078 CH_sp2        1 RES
    2031 _CH         34.1380    30.5216     6.3073 CH_sp2        1 RES
    2032 _CH         34.5097    31.8512     6.0747 CH_sp2        1 RES
    2033 _CH         35.8641    32.2040     6.0427 CH_sp2        1 RES
    2034 _CH         36.8469    31.2273     6.2432 CH_sp2        1 RES
    2035 _CH         22.5777    34.7490    33.3697 CH_sp2        1 RES
    2036 _CH         21.3901    35.3849    32.9888 CH_sp2        1 RES
    2037 _CH         20.1653    34.9503    33.5094 CH_sp2        1 RES
    2038 _CH         20.1281    33.8799    34.4109 CH_sp2        1 RES
    2039 _CH         21.3158    33.2439    34.7918 CH_sp2        1 RES
    2040 _CH         22.5406    33.6785    34.2712 CH_sp2        1 RES
    2041 _CH         19.2465    30.2144    21.6495 CH_sp2        1 RES
    2042 _CH         18.3513    30.2760    22.7242 CH_sp2        1 RES
    2043 _CH         18.7991    30.6867    23.9855 CH_sp2        1 RES
    2044 _CH         20.1420    31.0357    24.1721 CH_sp2        1 RES
    2045 _CH         21.0371    30.9741    23.0975 CH_sp2        1 RES
    2046 _CH         20.5894    30.5634    21.8362 CH_sp2        1 RES
    2047 _CH         11.2045    17.0499    31.4193 CH_sp2        1 RES
    2048 _CH         11.1763    15.6516    31.3555 CH_sp2        1 RES
    2049 _CH         12.3736    14.9302    31.2775 CH_sp2        1 RES
    2050 _CH         13.5990    15.6070    31.2635 CH_sp2        1 RES
    2051 _CH         13.6272    17.0052    31.3273 CH_sp2        1 RES
    2052 _CH         12.4300    17.7267    31.4052 CH_sp2        1 RES
    2053 _CH         20.1356    26.2211    21.2760 CH_sp2        1 RES
    2054 _CH         21.2607    25.6257    21.8588 CH_sp2        1 RES
    2055 _CH         21.3580    24.2308    21.9274 CH_sp2        1 RES
    2056 _CH         20.3302    23.4313    21.4132 CH_sp2        1 RES
    2057 _CH         19.2051    24.0267    20.8304 CH_sp2        1 RES
    2058 _CH         19.1078    25.4216    20.7618 CH_sp2        1 RES
    2059 _CH         21.9418    14.2352    33.6038 CH_sp2        1 RES
    2060 _CH         21.7442    13.1892    34.5130 CH_sp2        1 RES
    2061 _CH         22.5192    12.0268    34.4219 CH_sp2        1 RES
    2062 _CH         23.4917    11.9105    33.4216 CH_sp2        1 RES
    2063 _CH         23.6892    12.9565    32.5123 CH_sp2        1 RES
    2064 _CH         22.9143    14.1189    32.6035 CH_sp2        1 RES
    2065 _CH          8.6908    14.0899    25.2102 CH_sp2        1 RES
    2066 _CH          9.4467    13.2501    24.3836 CH_sp2        1 RES
    2067 _CH          8.8921    12.7490    23.1998 CH_sp2        1 RES
    2068 _CH          7.5815    13.0877    22.8426 CH_sp2        1 RES
    2069 _CH          6.8256    13.9275    23.6692 CH_sp2        1 RES
    2070 _CH          7.3802    14.4286    24.8529 CH_sp2        1 RES
    2071 _CH         32.3624     9.7709    21.6134 CH_sp2        1 RES
    2072 _CH         31.4463    10.8167    21.4482 CH_sp2        1 RES
    2073 _CH         31.8883    12.0725    21.0151 CH_sp2        1 RES
    2074 _CH         33.2462    12.2826    20.7471 CH_sp2        1 RES
    2075 _CH         34.1623    11.2368    20.9123 CH_sp2        1 RES
    2076 _CH         33.7204     9.9810    21.3454 CH_sp2        1 RES
    2077 _CH         33.2954    31.0413    21.9062 CH_sp2        1 RES
    2078 _CH         32.4570    32.0555    22.3843 CH_sp2        1 RES
    2079 _CH         32.9708    33.0501    23.2250 CH_sp2        1 RES
    2080 _CH         34.3228    33.0304    23.5877 CH_sp2        1 RES
    2081 _CH         35.1611    32.0162    23.1097 CH_sp2        1 RES
    2082 _CH         34.6474    31.0216    22.2689 CH_sp2        1 RES
    2083 _CH          6.2983    24.7837    21.1048 CH_sp2        1 RES
    2084 _CH          7.5264    25.2799    20.6515 CH_sp2        1 RES
    2085 _CH          8.6745    25.1330    21.4391 CH_sp2        1 RES
    2086 _CH          8.5944    24.4899    22.6801 CH_sp2        1 RES
    2087 _CH          7.3663    23.9937    23.1334 CH_sp2        1 RES
    2088 _CH          6.2182    24.1406    22.3458 CH_sp2        1 RES
    2089 _CH         37.1219    15.8970     2.0184 CH_sp2        1 RES
    2090 _CH         36.2861    16.7750     2.7188 CH_sp2        1 RES
    2091 _CH         35.1815    16.2790     3.4216 CH_sp2        1 RES
    2092 _CH         34.9127    14.9050     3.4238 CH_sp2        1 RES
    2093 _CH         35.7485    14.0271     2.7234 CH_sp2        1 RES
    2094 _CH         36.8531    14.5231     2.0206 CH_sp2        1 RES
    2095 _CH          2.0065    14.3057     5.6045 CH_sp2        1 RES
    2096 _CH          3.0506    14.3101     6.5372 CH_sp2        1 RES
    2097 _CH          4.3795    14.2544     6.1006 CH_sp2        1 RES
    2098 _CH          4.6645    14.1943     4.7312 CH_sp2        1 RES
    2099 _CH          3.6204    14.1899     3.7985 CH_sp2        1 RES
    2100 _CH          2.2914    14.2456     4.2352 CH_sp2        1 RES
    2101 _CH         33.8732    26.4559    14.9403 CH_sp2        1 RES
    2102 _CH         34.9679    25.6090    14.7297 CH_sp2        1 RES
    2103 _CH         34.7610    24.2482    14.4737 CH_sp2        1 RES
    2104 _CH         33.4595    23.7344    14.4283 CH_sp2        1 RES
    2105 _CH         32.3648    24.5813    14.6389 CH_sp2        1 RES
    2106 _CH         32.5717    25.9421    14.8949 CH_sp2        1 RES
    2107 _CH         35.0175     7.7926    14.9982 CH_sp2        1 RES
    2108 _CH         35.6430     9.0450    15.0136 CH_sp2        1 RES
    2109 _CH         37.0403     9.1294    15.0321 CH_sp2        1 RES
    2110 _CH         37.8122     7.9614    15.0351 CH_sp2        1 RES
    2111 _CH         37.1867     6.7090    15.0197 CH_sp2        1 RES
    2112 _CH         35.7894     6.6246    15.0012 CH_sp2        1 RES
    2113 _CH         21.1765    11.2895    15.9765 CH_sp2        1 RES
    2114 _CH         21.2318    10.8782    14.6394 CH_sp2        1 RES
    2115 _CH         20.0918    10.3499    14.0219 CH_sp2        1 RES
    2116 _CH         18.8965    10.2330    14.7414 CH_sp2        1 RES
    2117 _CH         18.8413    10.6443    16.0785 CH_sp2        1 RES
    2118 _CH         19.9813    11.1726    16.6960 CH_sp2        1 RES
    2119 _CH         11.5236     7.5186    15.7188 CH_sp2        1 RES
    2120 _CH         12.3514     8.6205    15.9649 CH_sp2        1 RES
    2121 _CH         13.7135     8.5575    15.6471 CH_sp2        1 RES
    2122 _CH         14.2476     7.3927    15.0833 CH_sp2        1 RES
    2123 _CH         13.4197     6.2909    14.8372 CH_sp2        1 RES
    2124 _CH         12.0577     6.3538    15.1550 CH_sp2        1 RES
    2125 _CH         24.3155    29.9894    34.9691 CH_sp2        1 RES
    2126 _CH         23.5398    30.4979    36.0178 CH_sp2        1 RES
    2127 _CH         22.1661    30.2320    36.0651 CH_sp2        1 RES
    2128 _CH         21.5680    29.4577    35.0637 CH_sp2        1 RES
    2129 _CH         22.3437    28.9492    34.0150 CH_sp2        1 RES
    2130 _CH         23.7174    29.2151    33.9677 CH_sp2        1 RES
    2131 _CH         11.7582    33.0377     4.9222 CH_sp2        1 RES
    2132 _CH         12.8678    32.9074     5.7658 CH_sp2        1 RES
    2133 _CH         13.3466    34.0191     6.4694 CH_sp2        1 RES
    2134 _CH         12.7158    35.2610     6.3292 CH_sp2        1 RES
    2135 _CH         11.6061    35.3913     5.4856 CH_sp2        1 RES
    2136 _CH         11.1274    34.2797     4.7820 CH_sp2        1 RES
    2137 _CH         38.9329    16.4612     7.0572 CH_sp2        1 RES
    2138 _CH         37.5507    16.2484     6.9910 CH_sp2        1 RES
    2139 _CH         37.0520    15.0338     6.5052 CH_sp2        1 RES
    2140 _CH         37.9354    14.0320     6.0855 CH_sp2        1 RES
    2141 _CH         39.3176    14.2449     6.1517 CH_sp2        1 RES
    2142 _CH         39.8163    15.4595     6.6375 CH_sp2        1 RES
    2143 _CH          4.1779    36.9176    29.8157 CH_sp2        1 RES
    2144 _CH          3.6303    35.6298    29.8562 CH_sp2        1 RES
    2145 _CH          3.9365    34.7721    30.9195 CH_sp2        1 RES
    2146 _CH          4.7904    35.2021    31.9422 CH_sp2        1 RES
    2147 _CH          5.3379    36.4900    31.9017 CH_sp2        1 RES
    2148 _CH          5.0317    37.3477    30.8385 CH_sp2        1 RES
    2149 _CH         37.2476    10.1980    27.9405 CH_sp2        1 RES
    2150 _CH         36.1743    10.6273    27.1506 CH_sp2        1 RES
    2151 _CH         36.3908    11.5415    26.1127 CH_sp2        1 RES
    2152 _CH         37.6805    12.0265    25.8646 CH_sp2        1 RES
    2153 _CH         38.7537    11.5972    26.6545 CH_sp2        1 RES
    2154 _CH         38.5372    10.6830    27.6925 CH_sp2        1 RES
    2155 _CH         35.5483     9.0518    11.7497 CH_sp2        1 RES
    2156 _CH         36.9461     9.1299    11.7437 CH_sp2        1 RES
    2157 _CH         37.7126     7.9585    11.7266 CH_sp2        1 RES
    2158 _CH         37.0813     6.7090    11.7157 CH_sp2        1 RES
    2159 _CH         35.6835     6.6309    11.7217 CH_sp2        1 RES
    2160 _CH         34.9170     7.8023    11.7387 CH_sp2        1 RES
    2161 _CH         29.8792    14.8970    16.6321 CH_sp2        1 RES
    2162 _CH         29.8736    13.5247    16.9089 CH_sp2        1 RES
    2163 _CH         31.0824    12.8427    17.0928 CH_sp2        1 RES
    2164 _CH         32.2967    13.5331    16.9999 CH_sp2        1 RES
    2165 _CH         32.3023    14.9055    16.7230 CH_sp2        1 RES
    2166 _CH         31.0936    15.5874    16.5391 CH_sp2        1 RES
    2167 _CH         30.6743    33.3085    10.2607 CH_sp2        1 RES
    2168 _CH         29.4118    32.7035    10.2766 CH_sp2        1 RES
    2169 _CH         28.2565    33.4942    10.2738 CH_sp2        1 RES
    2170 _CH         28.3637    34.8900    10.2551 CH_sp2        1 RES
    2171 _CH         29.6261    35.4950    10.2392 CH_sp2        1 RES
    2172 _CH         30.7814    34.7043    10.2420 CH_sp2        1 RES
    2173 _CH         31.9241    32.5726    27.5628 CH_sp2        1 RES
    2174 _CH         30.9013    31.9983    28.3270 CH_sp2        1 RES
    2175 _CH         29.6303    32.5848    28.3490 CH_sp2        1 RES
    2176 _CH         29.3820    33.7456    27.6068 CH_sp2        1 RES
    2177 _CH         30.4048    34.3199    26.8425 CH_sp2        1 RES
    2178 _CH         31.6758    33.7334    26.8205 CH_sp2        1 RES
    2179 _CH         11.3211    35.1136    25.4259 CH_sp2        1 RES
    2180 _CH         12.7147    35.0103    25.5105 CH_sp2        1 RES
    2181 _CH         13.3162    33.7540    25.6514 CH_sp2        1 RES
    2182 _CH         12.5241    32.6010    25.7078 CH_sp2        1 RES
    2183 _CH         11.1305    32.7043    25.6233 CH_sp2        1 RES
    2184 _CH         10.5290    33.9606    25.4823 CH_sp2        1 RES
    2185 _CH         26.5572     6.1496    17.3744 CH_sp2        1 RES
    2186 _CH         26.1100     5.7436    18.6374 CH_sp2        1 RES
    2187 _CH         26.7808     6.1728    19.7888 CH_sp2        1 RES
    2188 _CH         27.8989     7.0079    19.6772 CH_sp2        1 RES
    2189 _CH         28.3461     7.4139    18.4142 CH_sp2        1 RES
    2190 _CH         27.6753     6.9847    17.2628 CH_sp2        1 RES
    2191 _CH         18.8016    32.9636    24.4669 CH_sp2        1 RES
    2192 _CH         17.4825    32.9092    24.0010 CH_sp2        1 RES
    2193 _CH         16.5261    33.8009    24.5014 CH_sp2        1 RES
    2194 _CH         16.8888    34.7469    25.4675 CH_sp2        1 RES
    2195 _CH         18.2079    34.8013    25.9334 CH_sp2        1 RES
    2196 _CH         19.1643    33.9096    25.4331 CH_sp2        1 RES
    2197 _CH         29.2824    34.4966     2.0116 CH_sp2        1 RES
    2198 _CH         29.3292    33.1346     2.3323 CH_sp2        1 RES
    2199 _CH         29.5487    32.7343     3.6558 CH_sp2        1 RES
    2200 _CH         29.7214    33.6959     4.6585 CH_sp2        1 RES
    2201 _CH         29.6746    35.0579     4.3378 CH_sp2        1 RES
    2202 _CH         29.4551    35.4582     3.0143 CH_sp2        1 RES
    2203 _CH          4.5662    11.0025    38.0066 CH_sp2        1 RES
    2204 _CH          4.0594     9.7783    38.4589 CH_sp2        1 RES
    2205 _CH          3.0153     9.7545    39.3912 CH_sp2        1 RES
    2206 _CH          2.4779    10.9548    39.8712 CH_sp2        1 RES
    2207 _CH          2.9846    12.1790    39.4188 CH_sp2        1 RES
    2208 _CH          4.0288    12.2028    38.4865 CH_sp2        1 RES
    2209 _CH         21.3937    18.8545    14.5265 CH_sp2        1 RES
    2210 _CH         20.7043    18.0913    13.5766 CH_sp2        1 RES
    2211 _CH         21.2542    16.8913    13.1100 CH_sp2        1 RES
    2212 _CH         22.4935    16.4546    13.5933 CH_sp2        1 RES
    2213 _CH         23.1829    17.2179    14.5431 CH_sp2        1 RES
    2214 _CH         22.6330    18.4178    15.0097 CH_sp2        1 RES
    2215 _CH          4.4347    15.8037    14.0690 CH_sp2        1 RES
    2216 _CH          3.1709    16.4055    14.0423 CH_sp2        1 RES
    2217 _CH          2.0309    15.6293    13.8016 CH_sp2        1 RES
    2218 _CH          2.1547    14.2513    13.5876 CH_sp2        1 RES
    2219 _CH          3.4185    13.6495    13.6142 CH_sp2        1 RES
    2220 _CH          4.5585    14.4257    13.8549 CH_sp2        1 RES
    2221 _CH         11.4545    10.6503    24.8288 CH_sp2        1 RES
    2222 _CH         11.9383     9.3496    24.6442 CH_sp2        1 RES
    2223 _CH         11.0678     8.3293    24.2428 CH_sp2        1 RES
    2224 _CH          9.7134     8.6097    24.0259 CH_sp2        1 RES
    2225 _CH          9.2296     9.9104    24.2105 CH_sp2        1 RES
    2226 _CH         10.1001    10.9307    24.6119 CH_sp2        1 RES
    2227 _CH         21.5873    38.2527    37.0094 CH_sp2        1 RES
    2228 _CH         22.4719    37.2071    36.7195 CH_sp2        1 RES
    2229 _CH         23.8526    37.4040    36.8416 CH_sp2        1 RES
    2230 _CH         24.3487    38.6467    37.2536 CH_sp2        1 RES
    2231 _CH         23.4640    39.6924    37.5435 CH_sp2        1 RES
    2232 _CH         22.0834    39.4954    37.4213 CH_sp2        1 RES
    2233 _CH          3.5939    21.5725     7.1228 CH_sp2        1 RES
    2234 _CH          4.7681    20.8482     7.3608 CH_sp2        1 RES
    2235 _CH          4.7009    19.5793     7.9485 CH_sp2        1 RES
    2236 _CH          3.4595    19.0348     8.2982 CH_sp2        1 RES
    2237 _CH          2.2853    19.7591     8.0602 CH_sp2        1 RES
    2238 _CH          2.3525    21.0280     7.4725 CH_sp2        1 RES
    2239 _CH         26.1146    27.5502    36.6937 CH_sp2        1 RES
    2240 _CH         24.7974    27.2362    36.3384 CH_sp2        1 RES
    2241 _CH         24.2302    26.0254    36.7533 CH_sp2        1 RES
    2242 _CH         24.9802    25.1286    37.5236 CH_sp2        1 RES
    2243 _CH         26.2974    25.4427    37.8789 CH_sp2        1 RES
    2244 _CH         26.8646    26.6535    37.4640 CH_sp2        1 RES
    2245 _CH         21.8476    35.8738     4.1451 CH_sp2        1 RES
    2246 _CH         23.2253    35.7628     3.9226 CH_sp2        1 RES
    2247 _CH         24.0383    36.9009     3.9839 CH_sp2        1 RES
    2248 _CH         23.4735    38.1501     4.2678 CH_sp2        1 RES
    2249 _CH         22.0957    38.2611     4.4903 CH_sp2        1 RES
    2250 _CH         21.2828    37.1230     4.4289 CH_sp2        1 RES
    2251 _CH         25.4105    17.0342     7.6745 CH_sp2        1 RES
    2252 _CH         24.4759    18.0339     7.3794 CH_sp2        1 RES
    2253 _CH         24.8467    19.3820     7.4509 CH_sp2        1 RES
    2254 _CH         26.1522    19.7304     7.8174 CH_sp2        1 RES
    2255 _CH         27.0868    18.7307     8.1125 CH_sp2        1 RES
    2256 _CH         26.7160    17.3826     8.0411 CH_sp2        1 RES
    2257 _CH         18.8496    17.1523    32.1071 CH_sp2        1 RES
    2258 _CH         19.3881    18.3138    32.6737 CH_sp2        1 RES
    2259 _CH         20.0771    18.2445    33.8905 CH_sp2        1 RES
    2260 _CH         20.2276    17.0138    34.5406 CH_sp2        1 RES
    2261 _CH         19.6892    15.8523    33.9739 CH_sp2        1 RES
    2262 _CH         19.0002    15.9216    32.7572 CH_sp2        1 RES
    2263 _CH         29.5214    20.7080     4.0937 CH_sp2        1 RES
    2264 _CH         29.7699    19.7150     5.0487 CH_sp2        1 RES
    2265 _CH         28.7532    18.8244     5.4134 CH_sp2        1 RES
    2266 _CH         27.4879    18.9268     4.8231 CH_sp2        1 RES
    2267 _CH         27.2393    19.9199     3.8681 CH_sp2        1 RES
    2268 _CH         28.2561    20.8105     3.5034 CH_sp2        1 RES
    2269 _CH         19.1776    24.2334    25.6209 CH_sp2        1 RES
    2270 _CH         20.3246    25.0164    25.4438 CH_sp2        1 RES
    2271 _CH         21.5862    24.4109    25.4038 CH_sp2        1 RES
    2272 _CH         21.7009    23.0223    25.5408 CH_sp2        1 RES
    2273 _CH         20.5539    22.2393    25.7179 CH_sp2        1 RES
    2274 _CH         19.2923    22.8448    25.7579 CH_sp2        1 RES
    2275 _CH         28.9901    29.6186    28.8879 CH_sp2        1 RES
    2276 _CH         28.9501    28.2976    28.4260 CH_sp2        1 RES
    2277 _CH         30.1065    27.5091    28.4590 CH_sp2        1 RES
    2278 _CH         31.3029    28.0417    28.9539 CH_sp2        1 RES
    2279 _CH         31.3430    29.3627    29.4159 CH_sp2        1 RES
    2280 _CH         30.1866    30.1511    29.3829 CH_sp2        1 RES
    2281 _CH         32.4725    36.6855    40.1699 CH_sp2        1 RES
    2282 _CH         31.1653    37.1868    40.1698 CH_sp2        1 RES
    2283 _CH         30.9459    38.5695    40.1698 CH_sp2        1 RES
    2284 _CH         32.0336    39.4509    40.1698 CH_sp2        1 RES
    2285 _CH         33.3407    38.9496    40.1698 CH_sp2        1 RES
    2286 _CH         33.5602    37.5669    40.1699 CH_sp2        1 RES
    2287 _CH         25.4765    15.8318    35.7173 CH_sp2        1 RES
    2288 _CH         24.7292    14.8009    36.2993 CH_sp2        1 RES
    2289 _CH         25.3750    13.7881    37.0184 CH_sp2        1 RES
    2290 _CH         26.7681    13.8062    37.1556 CH_sp2        1 RES
    2291 _CH         27.5155    14.8371    36.5736 CH_sp2        1 RES
    2292 _CH         26.8696    15.8499    35.8544 CH_sp2        1 RES
    2293 _CH         16.1254     6.0554    37.8799 CH_sp2        1 RES
    2294 _CH         15.6124     5.9967    36.5786 CH_sp2        1 RES
    2295 _CH         14.2295     5.9221    36.3740 CH_sp2        1 RES
    2296 _CH         13.3595     5.9062    37.4708 CH_sp2        1 RES
    2297 _CH         13.8725     5.9649    38.7721 CH_sp2        1 RES
    2298 _CH         15.2554     6.0395    38.9766 CH_sp2        1 RES
    2299 _CH         11.5892    17.5487     2.4769 CH_sp2        1 RES
    2300 _CH         12.9303    17.6391     2.8685 CH_sp2        1 RES
    2301 _CH         13.4518    18.8637     3.3024 CH_sp2        1 RES
    2302 _CH         12.6322    19.9980     3.3447 CH_sp2        1 RES
    2303 _CH         11.2911    19.9076     2.9531 CH_sp2        1 RES
    2304 _CH         10.7696    18.6829     2.5192 CH_sp2        1 RES
    2305 _CH         25.5581    31.3728    37.6092 CH_sp2        1 RES
    2306 _CH         26.3237    31.2788    36.4408 CH_sp2        1 RES
    2307 _CH         25.8781    31.8868    35.2611 CH_sp2        1 RES
    2308 _CH         24.6668    32.5887    35.2497 CH_sp2        1 RES
    2309 _CH         23.9012    32.6827    36.4180 CH_sp2        1 RES
    2310 _CH         24.3468    32.0747    37.5978 CH_sp2        1 RES
    2311 _CH         20.3858    14.0198     6.1047 CH_sp2        1 RES
    2312 _CH         20.6110    14.4644     7.4130 CH_sp2        1 RES
    2313 _CH         19.6452    14.2458     8.4026 CH_sp2        1 RES
    2314 _CH         18.4542    13.5826     8.0840 CH_sp2        1 RES
    2315 _CH         18.2289    13.1380     6.7757 CH_sp2        1 RES
    2316 _CH         19.1947    13.3566     5.7861 CH_sp2        1 RES
    2317 _CH         33.4647     7.0024    27.9335 CH_sp2        1 RES
    2318 _CH         33.0484     5.7776    27.3981 CH_sp2        1 RES
    2319 _CH         31.8226     5.2241    27.7869 CH_sp2        1 RES
    2320 _CH         31.0131     5.8954    28.7111 CH_sp2        1 RES
    2321 _CH         31.4294     7.1202    29.2465 CH_sp2        1 RES
    2322 _CH         32.6552     7.6737    28.8577 CH_sp2        1 RES
    2323 _CH         10.3287    22.6332    21.8637 CH_sp2        1 RES
    2324 _CH         11.1459    23.6038    21.2719 CH_sp2        1 RES
    2325 _CH         12.4023    23.8895    21.8194 CH_sp2        1 RES
    2326 _CH         12.8416    23.2047    22.9587 CH_sp2        1 RES
    2327 _CH         12.0244    22.2342    23.5506 CH_sp2        1 RES
    2328 _CH         10.7680    21.9485    23.0031 CH_sp2        1 RES
    2329 _CH         26.2797    18.0896    21.7141 CH_sp2        1 RES
    2330 _CH         26.8883    16.8724    22.0428 CH_sp2        1 RES
    2331 _CH         26.2205    15.6669    21.7965 CH_sp2        1 RES
    2332 _CH         24.9440    15.6786    21.2215 CH_sp2        1 RES
    2333 _CH         24.3354    16.8958    20.8929 CH_sp2        1 RES
    2334 _CH         25.0032    18.1013    21.1392 CH_sp2        1 RES
    2335 _CH         36.8652    23.1174    22.1384 CH_sp2        1 RES
    2336 _CH         36.3463    24.3267    22.6165 CH_sp2        1 RES
    2337 _CH         35.4256    24.3251    23.6711 CH_sp2        1 RES
    2338 _CH         35.0237    23.1143    24.2477 CH_sp2        1 RES
    2339 _CH         35.5426    21.9051    23.7697 CH_sp2        1 RES
    2340 _CH         36.4633    21.9066    22.7150 CH_sp2        1 RES
    2341 _CH         38.8879    20.8666    12.0408 CH_sp2        1 RES
    2342 _CH         38.5944    21.6719    13.1477 CH_sp2        1 RES
    2343 _CH         37.2968    22.1648    13.3304 CH_sp2        1 RES
    2344 _CH         36.2928    21.8524    12.4061 CH_sp2        1 RES
    2345 _CH         36.5863    21.0471    11.2991 CH_sp2        1 RES
    2346 _CH         37.8839    20.5543    11.1165 CH_sp2        1 RES
    2347 _CH         34.6427    21.2824    37.0373 CH_sp2        1 RES
    2348 _CH         35.5721    22.3258    36.9509 CH_sp2        1 RES
    2349 _CH         35.2006    23.5486    36.3792 CH_sp2        1 RES
    2350 _CH         33.8997    23.7279    35.8939 CH_sp2        1 RES
    2351 _CH         32.9703    22.6845    35.9803 CH_sp2        1 RES
    2352 _CH         33.3418    21.4617    36.5520 CH_sp2        1 RES
    2353 _CH          5.6760    21.5009    27.2882 CH_sp2        1 RES
    2354 _CH          4.6888    21.0513    28.1732 CH_sp2        1 RES
    2355 _CH          4.9003    19.8905    28.9268 CH_sp2        1 RES
    2356 _CH          6.0990    19.1793    28.7953 CH_sp2        1 RES
    2357 _CH          7.0862    19.6289    27.9103 CH_sp2        1 RES
    2358 _CH          6.8748    20.7897    27.1568 CH_sp2        1 RES
    2359 _CH          8.1009    25.9798     5.6233 CH_sp2        1 RES
    2360 _CH          9.4147    25.4981     5.5832 CH_sp2        1 RES
    2361 _CH          9.6838    24.1688     5.9305 CH_sp2        1 RES
    2362 _CH          8.6390    23.3212     6.3178 CH_sp2        1 RES
    2363 _CH          7.3251    23.8030     6.3579 CH_sp2        1 RES
    2364 _CH          7.0560    25.1323     6.0106 CH_sp2        1 RES
    2365 _CH         30.6825    29.1511    20.5475 CH_sp2        1 RES
    2366 _CH         30.6134    27.7608    20.6968 CH_sp2        1 RES
    2367 _CH         31.1429    27.1525    21.8411 CH_sp2        1 RES
    2368 _CH         31.7416    27.9344    22.8362 CH_sp2        1 RES
    2369 _CH         31.8107    29.3247    22.6869 CH_sp2        1 RES
    2370 _CH         31.2811    29.9331    21.5426 CH_sp2        1 RES
    2371 _CH         29.6835    14.2597    12.1539 CH_sp2        1 RES
    2372 _CH         30.0619    15.5883    12.3811 CH_sp2        1 RES
    2373 _CH         29.9974    16.5223    11.3402 CH_sp2        1 RES
    2374 _CH         29.5545    16.1277    10.0721 CH_sp2        1 RES
    2375 _CH         29.1761    14.7991     9.8448 CH_sp2        1 RES
    2376 _CH         29.2406    13.8651    10.8857 CH_sp2        1 RES
    2377 _CH          2.0358    23.6210    14.2325 CH_sp2        1 RES
    2378 _CH          2.0226    22.4193    13.5143 CH_sp2        1 RES
    2379 _CH          2.9655    21.4241    13.7977 CH_sp2        1 RES
    2380 _CH          3.9217    21.6305    14.7993 CH_sp2        1 RES
    2381 _CH          3.9349    22.8322    15.5175 CH_sp2        1 RES
    2382 _CH          2.9920    23.8275    15.2341 CH_sp2        1 RES
    2383 _CH         24.5310    31.3858    10.5403 CH_sp2        1 RES
    2384 _CH         25.3791    30.3299    10.8949 CH_sp2        1 RES
    2385 _CH         24.8782    29.0247    10.9701 CH_sp2        1 RES
    2386 _CH         23.5292    28.7755    10.6907 CH_sp2        1 RES
    2387 _CH         22.6811    29.8314    10.3361 CH_sp2        1 RES
    2388 _CH         23.1820    31.1366    10.2609 CH_sp2        1 RES
    2389 _CH          3.5072     4.6233    23.0636 CH_sp2        1 RES
    2390 _CH          3.6938     3.6180    24.0199 CH_sp2        1 RES
    2391 _CH          4.8487     2.8273    23.9880 CH_sp2        1 RES
    2392 _CH          5.8170     3.0419    22.9999 CH_sp2        1 RES
    2393 _CH          5.6303     4.0472    22.0436 CH_sp2        1 RES
    2394 _CH          4.4754     4.8379    22.0754 CH_sp2        1 RES
    2395 _CH          8.4579    12.5528    39.6357 CH_sp2        1 RES
    2396 _CH          8.7554    13.6138    38.7722 CH_sp2        1 RES
    2397 _CH          7.7251    14.4182    38.2707 CH_sp2        1 RES
    2398 _CH          6.3973    14.1615    38.6326 CH_sp2        1 RES
    2399 _CH          6.0998    13.1004    39.4961 CH_sp2        1 RES
    2400 _CH          7.1301    12.2961    39.9977 CH_sp2        1 RES
@<TRIPOS>BOND
       1        1        2 1
       2        3        2 1
       3        4        3 1
       4        4        5 1
       5        5        6 1
       6        6        1 1
       7        7        8 1
       8        9        8 1
       9       10        9 1
      10       10       11 1
      11       11       12 1
      12       12        7 1
      13       13       14 1
      14       15       14 1
      15       16       15 1
      16       16       17 1
      17       17       18 1
      18       18       13 1
      19       19       20 1
      20       21       20 1
      21       22       21 1
      22       22       23 1
      23       23       24 1
      24       24       19 1
      25       25       26 1
      26       27       26 1
      27       28       27 1
      28       28       29 1
      29       29       30 1
      30       30       25 1
      31       31       32 1
      32       33       32 1
      33       34       33 1
      34       34       35 1
      35       35       36 1
      36       36       31 1
      37       37       38 1
      38       39       38 1
      39       40       39 1
      40       40       41 1
      41       41       42 1
      42       42       37 1
      43       43       44 1
      44       45       44 1
      45       46       45 1
      46       46       47 1
      47       47       48 1
      48       48       43 1
      49       49       50 1
      50       51       50 1
      51       52       51 1
      52       52       53 1
      53       53       54 1
      54       54       49 1
      55       55       56 1
      56       57       56 1
      57       58       57 1
      58       58       59 1
      59       59       60 1
      60       60       55 1
      61       61       62 1
      62       63       62 1
      63       64       63 1
      64       64       65 1
      65       65       66 1
      66       66       61 1
      67       67       68 1
      68       69       68 1
      69       70       69 1
      70       70       71 1
      71       71       72 1
      72       72       67 1
      73       73       74 1
      74       75       74 1
      75       76       75 1
      76       76       77 1
      77       77       78 1
      78       78       73 1
      79       79       80 1
      80       81       80 1
      81       82       81 1
      82       82       83 1
      83       83       84 1
      84       84       79 1
      85       85       86 1
      86       87       86 1
      87       88       87 1
      88       88       89 1
      89       89       90 1
      90       90       85 1
      91       91       92 1
      92       93       92 1
      93       94       93 1
      94       94       95 1
      95       95       96 1
      96       96       91 1
      97       97       98 1
      98       99       98 1
      99      100       99 1
     100      100      101 1
     101      101      102 1
     102      102       97 1
     103      103      104 1
     104      105      104 1
     105      106      105 1
     106      106      107 1
     107      107      108 1
     108      108      103 1
     109      109      110 1
     110      111      110 1
     111      112      111 1
     112      112      113 1
     113      113      114 1
     114      114      109 1
     115      115      116 1
     116      117      116 1
     117      118      117 1
     118      118      119 1
     119      119      120 1
     120      120      115 1
     121      121      122 1
     122      123      122 1
     123      124      123 1
     124      124      125 1
     125      125      126 1
     126      126      121 1
     127      127      128 1
     128      129      128 1
     129      130      129 1
     130      130      131 1
     131      131      132 1
     132      132      127 1
     133      133      134 1
     134      135      134 1
     135      136      135 1
     136      136      137 1
     137      137      138 1
     138      138      133 1
     139      139      140 1
     140      141      140 1
     141      142      141 1
     142      142      143 1
     143      143      144 1
     144      144      139 1
     145      145      146 1
     146      147      146 1
     147      148      147 1
     148      148      149 1
     149      149      150 1
     150      150      145 1
     151      151      152 1
     152      153      152 1
     153      154      153 1
     154      154      155 1
     155      155      156 1
     156      156      151 1
     157      157      158 1
     158      159      158 1
     159      160      159 1
     160      160      161 1
     161      161      162 1
     162      162      157 1
     163      163      164 1
     164      165      164 1
     165      166      165 1
     166      166      167 1
     167      167      168 1
     168      168      163 1
     169      169      170 1
     170      171      170 1
     171      172      171 1
     172      172      173 1
     173      173      174 1
     174      174      169 1
     175      175      176 1
     176      177      176 1
     177      178      177 1
     178      178      179 1
     179      179      180 1
     180      180      175 1
     181      181      182 1
     182      183      182 1
     183      184      183 1
     184      184      185 1
     185      185      186 1
     186      186      181 1
     187      187      188 1
     188      189      188 1
     189      190      189 1
     190      190      191 1
     191      191      192 1
     192      192      187 1
     193      193      194 1
     194      195      194 1
     195      196      195 1
     196      196      197 1
     197      197      198 1
     198      198      193 1
     199      199      200 1
     200      201      200 1
     201      202      201 1
     202      202      203 1
     203      203      204 1
     204      204      199 1
     205      205      206 1
     206      207      206 1
     207      208      207 1
     208      208      209 1
     209      209      210 1
     210      210      205 1
     211      211      212 1
     212      213      212 1
     213      214      213 1
     214      214      215 1
     215      215      216 1
     216      216      211 1
     217      217      218 1
     218      219      218 1
     219      220      219 1
     220      220      221 1
     221      221      222 1
     222      222      217 1
     223      223      224 1
     224      225      224 1
     225      226      225 1
     226      226      227 1
     227      227      228 1
     228      228      223 1
     229      229      230 1
     230      231      230 1
     231      232      231 1
     232      232      233 1
     233      233      234 1
     234      234      229 1
     235      235      236 1
     236      237      236 1
     237      238      237 1
     238      238      239 1
     239      239      240 1
     240      240      235 1
     241      241      242 1
     242      243      242 1
     243      244      243 1
     244      244      245 1
     245      245      246 1
     246      246      241 1
     247      247      248 1
     248      249      248 1
     249      250      249 1
     250      250      251 1
     251      251      252 1
     252      252      247 1
     253      253      254 1
     254      255      254 1
     255      256      255 1
     256      256      257 1
     257      257      258 1
     258      258      253 1
     259      259      260 1
     260      261      260 1
     261      262      261 1
     262      262      263 1
     263      263      264 1
     264      264      259 1
     265      265      266 1
     266      267      266 1
     267      268      267 1
     268      268      269 1
     269      269      270 1
     270      270      265 1
     271      271      272 1
     272      273      272 1
     273      274      273 1
     274      274      275 1
     275      275      276 1
     276      276      271 1
     277      277      278 1
     278      279      278 1
     279      280      279 1
     280      280      281 1
     281      281      282 1
     282      282      277 1
     283      283      284 1
     284      285      284 1
     285      286      285 1
     286      286      287 1
     287      287      288 1
     288      288      283 1
     289      289      290 1
     290      291      290 1
     291      292      291 1
     292      292      293 1
     293      293      294 1
     294      294      289 1
     295      295      296 1
     296      297      296 1
     297      298      297 1
     298      298      299 1
     299      299      300 1
     300      300      295 1
     301      301      302 1
     302      303      302 1
     303      304      303 1
     304      304      305 1
     305      305      306 1
     306      306      301 1
     307      307      308 1
     308      309      308 1
     309      310      309 1
     310      310      311 1
     311      311      312 1
     312      312      307 1
     313      313      314 1
     314      315      314 1
     315      316      315 1
     316      316      317 1
     317      317      318 1
     318      318      313 1
     319      319      320 1
     320      321      320 1
     321      322      321 1
     322      322      323 1
     323      323      324 1
     324      324      319 1
     325      325      326 1
     326      327      326 1
     327      328      327 1
     328      328      329 1
     329      329      330 1
     330      330      325 1
     331      331      332 1
     332      333      332 1
     333      334      333 1
     334      334      335 1
     335      335      336 1
     336      336      331 1
     337      337      338 1
     338      339      338 1
     339      340      339 1
     340      340      341 1
     341      341      342 1
     342      342      337 1
     343      343      344 1
     344      345      344 1
     345      346      345 1
     346      346      347 1
     347      347      348 1
     348      348      343 1
     349      349      350 1
     350      351      350 1
     351      352      351 1
     352      352      353 1
     353      353      354 1
     354      354      349 1
     355      355      356 1
     356      357      356 1
     357      358      357 1
     358      358      359 1
     359      359      360 1
     360      360      355 1
     361      361      362 1
     362      363      362 1
     363      364      363 1
     364      364      365 1
     365      365      366 1
     366      366      361 1
     367      367      368 1
     368      369      368 1
     369      370      369 1
     370      370      371 1
     371      371      372 1
     372      372      367 1
     373      373      374 1
     374      375      374 1
     375      376      375 1
     376      376      377 1
     377      377      378 1
     378      378      373 1
     379      379      380 1
     380      381      380 1
     381      382      381 1
     382      382      383 1
     383      383      384 1
     384      384      379 1
     385      385      386 1
     386      387      386 1
     387      388      387 1
     388      388      389 1
     389      389      390 1
     390      390      385 1
     391      391      392 1
     392      393      392 1
     393      394      393 1
     394      394      395 1
     395      395      396 1
     396      396      391 1
     397      397      398 1
     398      399      398 1
     399      400      399 1
     400      400      401 1
     401      401      402 1
     402      402      397 1
     403      403      404 1
     404      405      404 1
     405      406      405 1
     406      406      407 1
     407      407      408 1
     408      408      403 1
     409      409      410 1
     410      411      410 1
     411      412      411 1
     412      412      413 1
     413      413      414 1
     414      414      409 1
     415      415      416 1
     416      417      416 1
     417      418      417 1
     418      418      419 1
     419      419      420 1
     420      420      415 1
     421      421      422 1
     422      423      422 1
     423      424      423 1
     424      424      425 1
     425      425      426 1
     426      426      421 1
     427      427      428 1
     428      429      428 1
     429      430      429 1
     430      430      431 1
     431      431      432 1
     432      432      427 1
     433      433      434 1
     434      435      434 1
     435      436      435 1
     436      436      437 1
     437      437      438 1
     438      438      433 1
     439      439      440 1
     440      441      440 1
     441      442      441 1
     442      442      443 1
     443      443      444 1
     444      444      439 1
     445      445      446 1
     446      447      446 1
     447      448      447 1
     448      448      449 1
     449      449      450 1
     450      450      445 1
     451      451      452 1
     452      453      452 1
     453      454      453 1
     454      454      455 1
     455      455      456 1
     456      456      451 1
     457      457      458 1
     458      459      458 1
     459      460      459 1
     460      460      461 1
     461      461      462 1
     462      462      457 1
     463      463      464 1
     464      465      464 1
     465      466      465 1
     466      466      467 1
     467      467      468 1
     468      468      463 1
     469      469      470 1
     470      471      470 1
     471      472      471 1
     472      472      473 1
     473      473      474 1
     474      474      469 1
     475      475      476 1
     476      477      476 1
     477      478      477 1
     478      478      479 1
     479      479      480 1
     480      480      475 1
     481      481      482 1
     482      483      482 1
     483      484      483 1
     484      484      485 1
     485      485      486 1
     486      486      481 1
     487      487      488 1
     488      489      488 1
     489      490      489 1
     490      490      491 1
     491      491      492 1
     492      492      487 1
     493      493      494 1
     494      495      494 1
     495      496      495 1
     496      496      497 1
     497      497      498 1
     498      498      493 1
     499      499      500 1
     500      501      500 1
     501      502      501 1
     502      502      503 1
     503      503      504 1
     504      504      499 1
     505      505      506 1
     506      507      506 1
     507      508      507 1
     508      508      509 1
     509      509      510 1
     510      510      505 1
     511      511      512 1
     512      513      512 1
     513      514      513 1
     514      514      515 1
     515      515      516 1
     516      516      511 1
     517      517      518 1
     518      519      518 1
     519      520      519 1
     520      520      521 1
     521      521      522 1
     522      522      517 1
     523      523      524 1
     524      525      524 1
     525      526      525 1
     526      526      527 1
     527      527      528 1
     528      528      523 1
     529      529      530 1
     530      531      530 1
     531      532      531 1
     532      532      533 1
     533      533      534 1
     534      534      529 1
     535      535      536 1
     536      537      536 1
     537      538      537 1
     538      538      539 1
     539      539      540 1
     540      540      535 1
     541      541      542 1
     542      543      542 1
     543      544      543 1
     544      544      545 1
     545      545      546 1
     546      546      541 1
     547      547      548 1
     548      549      548 1
     549      550      549 1
     550      550      551 1
     551      551      552 1
     552      552      547 1
     553      553      554 1
     554      555      554 1
     555      556      555 1
     556      556      557 1
     557      557      558 1
     558      558      553 1
     559      559      560 1
     560      561      560 1
     561      562      561 1
     562      562      563 1
     563      563      564 1
     564      564      559 1
     565      565      566 1
     566      567      566 1
     567      568      567 1
     568      568      569 1
     569      569      570 1
     570      570      565 1
     571      571      572 1
     572      573      572 1
     573      574      573 1
     574      574      575 1
     575      575      576 1
     576      576      571 1
     577      577      578 1
     578      579      578 1
     579      580      579 1
     580      580      581 1
     581      581      582 1
     582      582      577 1
     583      583      584 1
     584      585      584 1
     585      586      585 1
     586      586      587 1
     587      587      588 1
     588      588      583 1
     589      589      590 1
     590      591      590 1
     591      592      591 1
     592      592      593 1
     593      593      594 1
     594      594      589 1
     595      595      596 1
     596      597      596 1
     597      598      597 1
     598      598      599 1
     599      599      600 1
     600      600      595 1
     601      601      602 1
     602      603      602 1
     603      604      603 1
     604      604      605 1
     605      605      606 1
     606      606      601 1
     607      607      608 1
     608      609      608 1
     609      610      609 1
     610      610      611 1
     611      611      612 1
     612      612      607 1
     613      613      614 1
     614      615      614 1
     615      616      615 1
     616      616      617 1
     617      617      618 1
     618      618      613 1
     619      619      620 1
     620      621      620 1
     621      622      621 1
     622      622      623 1
     623      623      624 1
     624      624      619 1
     625      625      626 1
     626      627      626 1
     627      628      627 1
     628      628      629 1
     629      629      630 1
     630      630      625 1
     631      631      632 1
     632      633      632 1
     633      634      633 1
     634      634      635 1
     635      635      636 1
     636      636      631 1
     637      637      638 1
     638      639      638 1
     639      640      639 1
     640      640      641 1
     641      641      642 1
     642      642      637 1
     643      643      644 1
     644      645      644 1
     645      646      645 1
     646      646      647 1
     647      647      648 1
     648      648      643 1
     649      649      650 1
     650      651      650 1
     651      652      651 1
     652      652      653 1
     653      653      654 1
     654      654      649 1
     655      655      656 1
     656      657      656 1
     657      658      657 1
     658      658      659 1
     659      659      660 1
     660      660      655 1
     661      661      662 1
     662      663      662 1
     663      664      663 1
     664      664      665 1
     665      665      666 1
     666      666      661 1
     667      667      668 1
     668      669      668 1
     669      670      669 1
     670      670      671 1
     671      671      672 1
     672      672      667 1
     673      673      674 1
     674      675      674 1
     675      676      675 1
     676      676      677 1
     677      677      678 1
     678      678      673 1
     679      679      680 1
     680      681      680 1
     681      682      681 1
     682      682      683 1
     683      683      684 1
     684      684      679 1
     685      685      686 1
     686      687      686 1
     687      688      687 1
     688      688      689 1
     689      689      690 1
     690      690      685 1
     691      691      692 1
     692      693      692 1
     693      694      693 1
     694      694      695 1
     695      695      696 1
     696      696      691 1
     697      697      698 1
     698      699      698 1
     699      700      699 1
     700      700      701 1
     701      701      702 1
     702      702      697 1
     703      703      704 1
     704      705      704 1
     705      706      705 1
     706      706      707 1
     707      707      708 1
     708      708      703 1
     709      709      710 1
     710      711      710 1
     711      712      711 1
     712      712      713 1
     713      713      714 1
     714      714      709 1
     715      715      716 1
     716      717      716 1
     717      718      717 1
     718      718      719 1
     719      719      720 1
     720      720      715 1
     721      721      722 1
     722      723      722 1
     723      724      723 1
     724      724      725 1
     725      725      726 1
     726      726      721 1
     727      727      728 1
     728      729      728 1
     729      730      729 1
     730      730      731 1
     731      731      732 1
     732      732      727 1
     733      733      734 1
     734      735      734 1
     735      736      735 1
     736      736      737 1
     737      737      738 1
     738      738      733 1
     739      739      740 1
     740      741      740 1
     741      742      741 1
     742      742      743 1
     743      743      744 1
     744      744      739 1
     745      745      746 1
     746      747      746 1
     747      748      747 1
     748      748      749 1
     749      749      750 1
     750      750      745 1
     751      751      752 1
     752      753      752 1
     753      754      753 1
     754      754      755 1
     755      755      756 1
     756      756      751 1
     757      757      758 1
     758      759      758 1
     759      760      759 1
     760      760      761 1
     761      761      762 1
     762      762      757 1
     763      763      764 1
     764      765      764 1
     765      766      765 1
     766      766      767 1
     767      767      768 1
     768      768      763 1
     769      769      770 1
     770      771      770 1
     771      772      771 1
     772      772      773 1
     773      773      774 1
     774      774      769 1
     775      775      776 1
     776      777      776 1
     777      778      777 1
     778      778      779 1
     779      779      780 1
     780      780      775 1
     781      781      782 1
     782      783      782 1
     783      784      783 1
     784      784      785 1
     785      785      786 1
     786      786      781 1
     787      787      788 1
     788      789      788 1
     789      790      789 1
     790      790      791 1
     791      791      792 1
     792      792      787 1
     793      793      794 1
     794      795      794 1
     795      796      795 1
     796      796      797 1
     797      797      798 1
     798      798      793 1
     799      799      800 1
     800      801      800 1
     801      802      801 1
     802      802      803 1
     803      803      804 1
     804      804      799 1
     805      805      806 1
     806      807      806 1
     807      808      807 1
     808      808      809 1
     809      809      810 1
     810      810      805 1
     811      811      812 1
     812      813      812 1
     813      814      813 1
     814      814      815 1
     815      815      816 1
     816      816      811 1
     817      817      818 1
     818      819      818 1
     819      820      819 1
     820      820      821 1
     821      821      822 1
     822      822      817 1
     823      823      824 1
     824      825      824 1
     825      826      825 1
     826      826      827 1
     827      827      828 1
     828      828      823 1
     829      829      830 1
     830      831      830 1
     831      832      831 1
     832      832      833 1
     833      833      834 1
     834      834      829 1
     835      835      836 1
     836      837      836 1
     837      838      837 1
     838      838      839 1
     839      839      840 1
     840      840      835 1
     841      841      842 1
     842      843      842 1
     843      844      843 1
     844      844      845 1
     845      845      846 1
     846      846      841 1
     847      847      848 1
     848      849      848 1
     849      850      849 1
     850      850      851 1
     851      851      852 1
     852      852      847 1
     853      853      854 1
     854      855      854 1
     855      856      855 1
     856      856      857 1
     857      857      858 1
     858      858      853 1
     859      859      860 1
     860      861      860 1
     861      862      861 1
     862      862      863 1
     863      863      864 1
     864      864      859 1
     865      865      866 1
     866      867      866 1
     867      868      867 1
     868      868      869 1
     869      869      870 1
     870      870      865 1
     871      871      872 1
     872      873      872 1
     873      874      873 1
     874      874      875 1
     875      875      876 1
     876      876      871 1
     877      877      878 1
     878      879      878 1
     879      880      879 1
     880      880      881 1
     881      881      882 1
     882      882      877 1
     883      883      884 1
     884      885      884 1
     885      886      885 1
     886      886      887 1
     887      887      888 1
     888      888      883 1
     889      889      890 1
     890      891      890 1
     891      892      891 1
     892      892      893 1
     893      893      894 1
     894      894      889 1
     895      895      896 1
     896      897      896 1
     897      898      897 1
     898      898      899 1
     899      899      900 1
     900      900      895 1
     901      901      902 1
     902      903      902 1
     903      904      903 1
     904      904      905 1
     905      905      906 1
     906      906      901 1
     907      907      908 1
     908      909      908 1
     909      910      909 1
     910      910      911 1
     911      911      912 1
     912      912      907 1
     913      913      914 1
     914      915      914 1
     915      916      915 1
     916      916      917 1
     917      917      918 1
     918      918      913 1
     919      919      920 1
     920      921      920 1
     921      922      921 1
     922      922      923 1
     923      923      924 1
     924      924      919 1
     925      925      926 1
     926      927      926 1
     927      928      927 1
     928      928      929 1
     929      929      930 1
     930      930      925 1
     931      931      932 1
     932      933      932 1
     933      934      933 1
     934      934      935 1
     935      935      936 1
     936      936      931 1
     937      937      938 1
     938      939      938 1
     939      940      939 1
     940      940      941 1
     941      941      942 1
     942      942      937 1
     943      943      944 1
     944      945      944 1
     945      946      945 1
     946      946      947 1
     947      947      948 1
     948      948      943 1
     949      949      950 1
     950      951      950 1
     951      952      951 1
     952      952      953 1
     953      953      954 1
     954      954      949 1
     955      955      956 1
     956      957      956 1
     957      958      957 1
     958      958      959 1
     959      959      960 1
     960      960      955 1
     961      961      962 1
     962      963      962 1
     963      964      963 1
     964      964      965 1
     965      965      966 1
     966      966      961 1
     967      967      968 1
     968      969      968 1
     969      970      969 1
     970      970      971 1
     971      971      972 1
     972      972      967 1
     973      973      974 1
     974      975      974 1
     975      976      975 1
     976      976      977 1
     977      977      978 1
     978      978      973 1
     979      979      980 1
     980      981      980 1
     981      982      981 1
     982      982      983 1
     983      983      984 1
     984      984      979 1
     985      985      986 1
     986      987      986 1
     987      988      987 1
     988      988      989 1
     989      989      990 1
     990      990      985 1
     991      991      992 1
     992      993      992 1
     993      994      993 1
     994      994      995 1
     995      995      996 1
     996      996      991 1
     997      997      998 1
     998      999      998 1
     999     1000      999 1
    1000     1000     1001 1
    1001     1001     1002 1
    1002     1002      997 1
    1003     1003     1004 1
    1004     1005     1004 1
    1005     1006     1005 1
    1006     1006     1007 1
    1007     1007     1008 1
    1008     1008     1003 1
    1009     1009     1010 1
    1010     1011     1010 1
    1011     1012     1011 1
    1012     1012     1013 1
    1013     1013     1014 1
    1014     1014     1009 1
    1015     1015     1016 1
    1016     1017     1016 1
    1017     1018     1017 1
    1018     1018     1019 1
    1019     1019     1020 1
    1020     1020     1015 1
    1021     1021     1022 1
    1022     1023     1022 1
    1023     1024     1023 1
    1024     1024     1025 1
    1025     1025     1026 1
    1026     1026     1021 1
    1027     1027     1028 1
    1028     1029     1028 1
    1029     1030     1029 1
    1030     1030     1031 1
    1031     1031     1032 1
    1032     1032     1027 1
    1033     1033     1034 1
    1034     1035     1034 1
    1035     1036     1035 1
    1036     1036     1037 1
    1037     1037     1038 1
    1038     1038     1033 1
    1039     1039     1040 1
    1040     1041     1040 1
    1041     1042     1041 1
    1042     1042     1043 1
    1043     1043     1044 1
    1044     1044     1039 1
    1045     1045     1046 1
    1046     1047     1046 1
    1047     1048     1047 1
    1048     1048     1049 1
    1049     1049     1050 1
    1050     1050     1045 1
    1051     1051     1052 1
    1052     1053     1052 1
    1053     1054     1053 1
    1054     1054     1055 1
    1055     1055     1056 1
    1056     1056     1051 1
    1057     1057     1058 1
    1058     1059     1058 1
    1059     1060     1059 1
    1060     1060     1061 1
    1061     1061     1062 1
    1062     1062     1057 1
    1063     1063     1064 1
    1064     1065     1064 1
    1065     1066     1065 1
    1066     1066     1067 1
    1067     1067     1068 1
    1068     1068     1063 1
    1069     1069     1070 1
    1070     1071     1070 1
    1071     1072     1071 1
    1072     1072     1073 1
    1073     1073     1074 1
    1074     1074     1069 1
    1075     1075     1076 1
    1076     1077     1076 1
    1077     1078     1077 1
    1078     1078     1079 1
    1079     1079     1080 1
    1080     1080     1075 1
    1081     1081     1082 1
    1082     1083     1082 1
    1083     1084     1083 1
    1084     1084     1085 1
    1085     1085     1086 1
    1086     1086     1081 1
    1087     1087     1088 1
    1088     1089     1088 1
    1089     1090     1089 1
    1090     1090     1091 1
    1091     1091     1092 1
    1092     1092     1087 1
    1093     1093     1094 1
    1094     1095     1094 1
    1095     1096     1095 1
    1096     1096     1097 1
    1097     1097     1098 1
    1098     1098     1093 1
    1099     1099     1100 1
    1100     1101     1100 1
    1101     1102     1101 1
    1102     1102     1103 1
    1103     1103     1104 1
    1104     1104     1099 1
    1105     1105     1106 1
    1106     1107     1106 1
    1107     1108     1107 1
    1108     1108     1109 1
    1109     1109     1110 1
    1110     1110     1105 1
    1111     1111     1112 1
    1112     1113     1112 1
    1113     1114     1113 1
    1114     1114     1115 1
    1115     1115     1116 1
    1116     1116     1111 1
    1117     1117     1118 1
    1118     1119     1118 1
    1119     1120     1119 1
    1120     1120     1121 1
    1121     1121     1122 1
    1122     1122     1117 1
    1123     1123     1124 1
    1124     1125     1124 1
    1125     1126     1125 1
    1126     1126     1127 1
    1127     1127     1128 1
    1128     1128     1123 1
    1129     1129     1130 1
    1130     1131     1130 1
    1131     1132     1131 1
    1132     1132     1133 1
    1133     1133     1134 1
    1134     1134     1129 1
    1135     1135     1136 1
    1136     1137     1136 1
    1137     1138     1137 1
    1138     1138     1139 1
    1139     1139     1140 1
    1140     1140     1135 1
    1141     1141     1142 1
    1142     1143     1142 1
    1143     1144     1143 1
    1144     1144     1145 1
    1145     1145     1146 1
    1146     1146     1141 1
    1147     1147     1148 1
    1148     1149     1148 1
    1149     1150     1149 1
    1150     1150     1151 1
    1151     1151     1152 1
    1152     1152     1147 1
    1153     1153     1154 1
    1154     1155     1154 1
    1155     1156     1155 1
    1156     1156     1157 1
    1157     1157     1158 1
    1158     1158     1153 1
    1159     1159     1160 1
    1160     1161     1160 1
    1161     1162     1161 1
    1162     1162     1163 1
    1163     1163     1164 1
    1164     1164     1159 1
    1165     1165     1166 1
    1166     1167     1166 1
    1167     1168     1167 1
    1168     1168     1169 1
    1169     1169     1170 1
    1170     1170     1165 1
    1171     1171     1172 1
    1172     1173     1172 1
    1173     1174     1173 1
    1174     1174     1175 1
    1175     1175     1176 1
    1176     1176     1171 1
    1177     1177     1178 1
    1178     1179     1178 1
    1179     1180     1179 1
    1180     1180     1181 1
    1181     1181     1182 1
    1182     1182     1177 1
    1183     1183     1184 1
    1184     1185     1184 1
    1185     1186     1185 1
    1186     1186     1187 1
    1187     1187     1188 1
    1188     1188     1183 1
    1189     1189     1190 1
    1190     1191     1190 1
    1191     1192     1191 1
    1192     1192     1193 1
    1193     1193     1194 1
    1194     1194     1189 1
    1195     1195     1196 1
    1196     1197     1196 1
    1197     1198     1197 1
    1198     1198     1199 1
    1199     1199     1200 1
    1200     1200     1195 1
    1201     1201     1202 1
    1202     1203     1202 1
    1203     1204     1203 1
    1204     1204     1205 1
    1205     1205     1206 1
    1206     1206     1201 1
    1207     1207     1208 1
    1208     1209     1208 1
    1209     1210     1209 1
    1210     1210     1211 1
    1211     1211     1212 1
    1212     1212     1207 1
    1213     1213     1214 1
    1214     1215     1214 1
    1215     1216     1215 1
    1216     1216     1217 1
    1217     1217     1218 1
    1218     1218     1213 1
    1219     1219     1220 1
    1220     1221     1220 1
    1221     1222     1221 1
    1222     1222     1223 1
    1223     1223     1224 1
    1224     1224     1219 1
    1225     1225     1226 1
    1226     1227     1226 1
    1227     1228     1227 1
    1228     1228     1229 1
    1229     1229     1230 1
    1230     1230     1225 1
    1231     1231     1232 1
    1232     1233     1232 1
    1233     1234     1233 1
    1234     1234     1235 1
    1235     1235     1236 1
    1236     1236     1231 1
    1237     1237     1238 1
    1238     1239     1238 1
    1239     1240     1239 1
    1240     1240     1241 1
    1241     1241     1242 1
    1242     1242     1237 1
    1243     1243     1244 1
    1244     1245     1244 1
    1245     1246     1245 1
    1246     1246     1247 1
    1247     1247     1248 1
    1248     1248     1243 1
    1249     1249     1250 1
    1250     1251     1250 1
    1251     1252     1251 1
    1252     1252     1253 1
    1253     1253     1254 1
    1254     1254     1249 1
    1255     1255     1256 1
    1256     1257     1256 1
    1257     1258     1257 1
    1258     1258     1259 1
    1259     1259     1260 1
    1260     1260     1255 1
    1261     1261     1262 1
    1262     1263     1262 1
    1263     1264     1263 1
    1264     1264     1265 1
    1265     1265     1266 1
    1266     1266     1261 1
    1267     1267     1268 1
    1268     1269     1268 1
    1269     1270     1269 1
    1270     1270     1271 1
    1271     1271     1272 1
    1272     1272     1267 1
    1273     1273     1274 1
    1274     1275     1274 1
    1275     1276     1275 1
    1276     1276     1277 1
    1277     1277     1278 1
    1278     1278     1273 1
    1279     1279     1280 1
    1280     1281     1280 1
    1281     1282     1281 1
    1282     1282     1283 1
    1283     1283     1284 1
    1284     1284     1279 1
    1285     1285     1286 1
    1286     1287     1286 1
    1287     1288     1287 1
    1288     1288     1289 1
    1289     1289     1290 1
    1290     1290     1285 1
    1291     1291     1292 1
    1292     1293     1292 1
    1293     1294     1293 1
    1294     1294     1295 1
    1295     1295     1296 1
    1296     1296     1291 1
    1297     1297     1298 1
    1298     1299     1298 1
    1299     1300     1299 1
    1300     1300     1301 1
    1301     1301     1302 1
    1302     1302     1297 1
    1303     1303     1304 1
    1304     1305     1304 1
    1305     1306     1305 1
    1306     1306     1307 1
    1307     1307     1308 1
    1308     1308     1303 1
    1309     1309     1310 1
    1310     1311     1310 1
    1311     1312     1311 1
    1312     1312     1313 1
    1313     1313     1314 1
    1314     1314     1309 1
    1315     1315     1316 1
    1316     1317     1316 1
    1317     1318     1317 1
    1318     1318     1319 1
    1319     1319     1320 1
    1320     1320     1315 1
    1321     1321     1322 1
    1322     1323     1322 1
    1323     1324     1323 1
    1324     1324     1325 1
    1325     1325     1326 1
    1326     1326     1321 1
    1327     1327     1328 1
    1328     1329     1328 1
    1329     1330     1329 1
    1330     1330     1331 1
    1331     1331     1332 1
    1332     1332     1327 1
    1333     1333     1334 1
    1334     1335     1334 1
    1335     1336     1335 1
    1336     1336     1337 1
    1337     1337     1338 1
    1338     1338     1333 1
    1339     1339     1340 1
    1340     1341     1340 1
    1341     1342     1341 1
    1342     1342     1343 1
    1343     1343     1344 1
    1344     1344     1339 1
    1345     1345     1346 1
    1346     1347     1346 1
    1347     1348     1347 1
    1348     1348     1349 1
    1349     1349     1350 1
    1350     1350     1345 1
    1351     1351     1352 1
    1352     1353     1352 1
    1353     1354     1353 1
    1354     1354     1355 1
    1355     1355     1356 1
    1356     1356     1351 1
    1357     1357     1358 1
    1358     1359     1358 1
    1359     1360     1359 1
    1360     1360     1361 1
    1361     1361     1362 1
    1362     1362     1357 1
    1363     1363     1364 1
    1364     1365     1364 1
    1365     1366     1365 1
    1366     1366     1367 1
    1367     1367     1368 1
    1368     1368     1363 1
    1369     1369     1370 1
    1370     1371     1370 1
    1371     1372     1371 1
    1372     1372     1373 1
    1373     1373     1374 1
    1374     1374     1369 1
    1375     1375     1376 1
    1376     1377     1376 1
    1377     1378     1377 1
    1378     1378     1379 1
    1379     1379     1380 1
    1380     1380     1375 1
    1381     1381     1382 1
    1382     1383     1382 1
    1383     1384     1383 1
    1384     1384     1385 1
    1385     1385     1386 1
    1386     1386     1381 1
    1387     1387     1388 1
    1388     1389     1388 1
    1389     1390     1389 1
    1390     1390     1391 1
    1391     1391     1392 1
    1392     1392     1387 1
    1393     1393     1394 1
    1394     1395     1394 1
    1395     1396     1395 1
    1396     1396     1397 1
    1397     1397     1398 1
    1398     1398     1393 1
    1399     1399     1400 1
    1400     1401     1400 1
    1401     1402     1401 1
    1402     1402     1403 1
    1403     1403     1404 1
    1404     1404     1399 1
    1405     1405     1406 1
    1406     1407     1406 1
    1407     1408     1407 1
    1408     1408     1409 1
    1409     1409     1410 1
    1410     1410     1405 1
    1411     1411     1412 1
    1412     1413     1412 1
    1413     1414     1413 1
    1414     1414     1415 1
    1415     1415     1416 1
    1416     1416     1411 1
    1417     1417     1418 1
    1418     1419     1418 1
    1419     1420     1419 1
    1420     1420     1421 1
    1421     1421     1422 1
    1422     1422     1417 1
    1423     1423     1424 1
    1424     1425     1424 1
    1425     1426     1425 1
    1426     1426     1427 1
    1427     1427     1428 1
    1428     1428     1423 1
    1429     1429     1430 1
    1430     1431     1430 1
    1431     1432     1431 1
    1432     1432     1433 1
    1433     1433     1434 1
    1434     1434     1429 1
    1435     1435     1436 1
    1436     1437     1436 1
    1437     1438     1437 1
    1438     1438     1439 1
    1439     1439     1440 1
    1440     1440     1435 1
    1441     1441     1442 1
    1442     1443     1442 1
    1443     1444     1443 1
    1444     1444     1445 1
    1445     1445     1446 1
    1446     1446     1441 1
    1447     1447     1448 1
    1448     1449     1448 1
    1449     1450     1449 1
    1450     1450     1451 1
    1451     1451     1452 1
    1452     1452     1447 1
    1453     1453     1454 1
    1454     1455     1454 1
    1455     1456     1455 1
    1456     1456     1457 1
    1457     1457     1458 1
    1458     1458     1453 1
    1459     1459     1460 1
    1460     1461     1460 1
    1461     1462     1461 1
    1462     1462     1463 1
    1463     1463     1464 1
    1464     1464     1459 1
    1465     1465     1466 1
    1466     1467     1466 1
    1467     1468     1467 1
    1468     1468     1469 1
    1469     1469     1470 1
    1470     1470     1465 1
    1471     1471     1472 1
    1472     1473     1472 1
    1473     1474     1473 1
    1474     1474     1475 1
    1475     1475     1476 1
    1476     1476     1471 1
    1477     1477     1478 1
    1478     1479     1478 1
    1479     1480     1479 1
    1480     1480     1481 1
    1481     1481     1482 1
    1482     1482     1477 1
    1483     1483     1484 1
    1484     1485     1484 1
    1485     1486     1485 1
    1486     1486     1487 1
    1487     1487     1488 1
    1488     1488     1483 1
    1489     1489     1490 1
    1490     1491     1490 1
    1491     1492     1491 1
    1492     1492     1493 1
    1493     1493     1494 1
    1494     1494     1489 1
    1495     1495     1496 1
    1496     1497     1496 1
    1497     1498     1497 1
    1498     1498     1499 1
    1499     1499     1500 1
    1500     1500     1495 1
    1501     1501     1502 1
    1502     1503     1502 1
    1503     1504     1503 1
    1504     1504     1505 1
    1505     1505     1506 1
    1506     1506     1501 1
    1507     1507     1508 1
    1508     1509     1508 1
    1509     1510     1509 1
    1510     1510     1511 1
    1511     1511     1512 1
    1512     1512     1507 1
    1513     1513     1514 1
    1514     1515     1514 1
    1515     1516     1515 1
    1516     1516     1517 1
    1517     1517     1518 1
    1518     1518     1513 1
    1519     1519     1520 1
    1520     1521     1520 1
    1521     1522     1521 1
    1522     1522     1523 1
    1523     1523     1524 1
    1524     1524     1519 1
    1525     1525     1526 1
    1526     1527     1526 1
    1527     1528     1527 1
    1528     1528     1529 1
    1529     1529     1530 1
    1530     1530     1525 1
    1531     1531     1532 1
    1532     1533     1532 1
    1533     1534     1533 1
    1534     1534     1535 1
    1535     1535     1536 1
    1536     1536     1531 1
    1537     1537     1538 1
    1538     1539     1538 1
    1539     1540     1539 1
    1540     1540     1541 1
    1541     1541     1542 1
    1542     1542     1537 1
    1543     1543     1544 1
    1544     1545     1544 1
    1545     1546     1545 1
    1546     1546     1547 1
    1547     1547     1548 1
    1548     1548     1543 1
    1549     1549     1550 1
    1550     1551     1550 1
    1551     1552     1551 1
    1552     1552     1553 1
    1553     1553     1554 1
    1554     1554     1549 1
    1555     1555     1556 1
    1556     1557     1556 1
    1557     1558     1557 1
    1558     1558     1559 1
    1559     1559     1560 1
    1560     1560     1555 1
    1561     1561     1562 1
    1562     1563     1562 1
    1563     1564     1563 1
    1564     1564     1565 1
    1565     1565     1566 1
    1566     1566     1561 1
    1567     1567     1568 1
    1568     1569     1568 1
    1569     1570     1569 1
    1570     1570     1571 1
    1571     1571     1572 1
    1572     1572     1567 1
    1573     1573     1574 1
    1574     1575     1574 1
    1575     1576     1575 1
    1576     1576     1577 1
    1577     1577     1578 1
    1578     1578     1573 1
    1579     1579     1580 1
    1580     1581     1580 1
    1581     1582     1581 1
    1582     1582     1583 1
    1583     1583     1584 1
    1584     1584     1579 1
    1585     1585     1586 1
    1586     1587     1586 1
    1587     1588     1587 1
    1588     1588     1589 1
    1589     1589     1590 1
    1590     1590     1585 1
    1591     1591     1592 1
    1592     1593     1592 1
    1593     1594     1593 1
    1594     1594     1595 1
    1595     1595     1596 1
    1596     1596     1591 1
    1597     1597     1598 1
    1598     1599     1598 1
    1599     1600     1599 1
    1600     1600     1601 1
    1601     1601     1602 1
    1602     1602     1597 1
    1603     1603     1604 1
    1604     1605     1604 1
    1605     1606     1605 1
    1606     1606     1607 1
    1607     1607     1608 1
    1608     1608     1603 1
    1609     1609     1610 1
    1610     1611     1610 1
    1611     1612     1611 1
    1612     1612     1613 1
    1613     1613     1614 1
    1614     1614     1609 1
    1615     1615     1616 1
    1616     1617     1616 1
    1617     1618     1617 1
    1618     1618     1619 1
    1619     1619     1620 1
    1620     1620     1615 1
    1621     1621     1622 1
    1622     1623     1622 1
    1623     1624     1623 1
    1624     1624     1625 1
    1625     1625     1626 1
    1626     1626     1621 1
    1627     1627     1628 1
    1628     1629     1628 1
    1629     1630     1629 1
    1630     1630     1631 1
    1631     1631     1632 1
    1632     1632     1627 1
    1633     1633     1634 1
    1634     1635     1634 1
    1635     1636     1635 1
    1636     1636     1637 1
    1637     1637     1638 1
    1638     1638     1633 1
    1639     1639     1640 1
    1640     1641     1640 1
    1641     1642     1641 1
    1642     1642     1643 1
    1643     1643     1644 1
    1644     1644     1639 1
    1645     1645     1646 1
    1646     1647     1646 1
    1647     1648     1647 1
    1648     1648     1649 1
    1649     1649     1650 1
    1650     1650     1645 1
    1651     1651     1652 1
    1652     1653     1652 1
    1653     1654     1653 1
    1654     1654     1655 1
    1655     1655     1656 1
    1656     1656     1651 1
    1657     1657     1658 1
    1658     1659     1658 1
    1659     1660     1659 1
    1660     1660     1661 1
    1661     1661     1662 1
    1662     1662     1657 1
    1663     1663     1664 1
    1664     1665     1664 1
    1665     1666     1665 1
    1666     1666     1667 1
    1667     1667     1668 1
    1668     1668     1663 1
    1669     1669     1670 1
    1670     1671     1670 1
    1671     1672     1671 1
    1672     1672     1673 1
    1673     1673     1674 1
    1674     1674     1669 1
    1675     1675     1676 1
    1676     1677     1676 1
    1677     1678     1677 1
    1678     1678     1679 1
    1679     1679     1680 1
    1680     1680     1675 1
    1681     1681     1682 1
    1682     1683     1682 1
    1683     1684     1683 1
    1684     1684     1685 1
    1685     1685     1686 1
    1686     1686     1681 1
    1687     1687     1688 1
    1688     1689     1688 1
    1689     1690     1689 1
    1690     1690     1691 1
    1691     1691     1692 1
    1692     1692     1687 1
    1693     1693     1694 1
    1694     1695     1694 1
    1695     1696     1695 1
    1696     1696     1697 1
    1697     1697     1698 1
    1698     1698     1693 1
    1699     1699     1700 1
    1700     1701     1700 1
    1701     1702     1701 1
    1702     1702     1703 1
    1703     1703     1704 1
    1704     1704     1699 1
    1705     1705     1706 1
    1706     1707     1706 1
    1707     1708     1707 1
    1708     1708     1709 1
    1709     1709     1710 1
    1710     1710     1705 1
    1711     1711     1712 1
    1712     1713     1712 1
    1713     1714     1713 1
    1714     1714     1715 1
    1715     1715     1716 1
    1716     1716     1711 1
    1717     1717     1718 1
    1718     1719     1718 1
    1719     1720     1719 1
    1720     1720     1721 1
    1721     1721     1722 1
    1722     1722     1717 1
    1723     1723     1724 1
    1724     1725     1724 1
    1725     1726     1725 1
    1726     1726     1727 1
    1727     1727     1728 1
    1728     1728     1723 1
    1729     1729     1730 1
    1730     1731     1730 1
    1731     1732     1731 1
    1732     1732     1733 1
    1733     1733     1734 1
    1734     1734     1729 1
    1735     1735     1736 1
    1736     1737     1736 1
    1737     1738     1737 1
    1738     1738     1739 1
    1739     1739     1740 1
    1740     1740     1735 1
    1741     1741     1742 1
    1742     1743     1742 1
    1743     1744     1743 1
    1744     1744     1745 1
    1745     1745     1746 1
    1746     1746     1741 1
    1747     1747     1748 1
    1748     1749     1748 1
    1749     1750     1749 1
    1750     1750     1751 1
    1751     1751     1752 1
    1752     1752     1747 1
    1753     1753     1754 1
    1754     1755     1754 1
    1755     1756     1755 1
    1756     1756     1757 1
    1757     1757     1758 1
    1758     1758     1753 1
    1759     1759     1760 1
    1760     1761     1760 1
    1761     1762     1761 1
    1762     1762     1763 1
    1763     1763     1764 1
    1764     1764     1759 1
    1765     1765     1766 1
    1766     1767     1766 1
    1767     1768     1767 1
    1768     1768     1769 1
    1769     1769     1770 1
    1770     1770     1765 1
    1771     1771     1772 1
    1772     1773     1772 1
    1773     1774     1773 1
    1774     1774     1775 1
    1775     1775     1776 1
    1776     1776     1771 1
    1777     1777     1778 1
    1778     1779     1778 1
    1779     1780     1779 1
    1780     1780     1781 1
    1781     1781     1782 1
    1782     1782     1777 1
    1783     1783     1784 1
    1784     1785     1784 1
    1785     1786     1785 1
    1786     1786     1787 1
    1787     1787     1788 1
    1788     1788     1783 1
    1789     1789     1790 1
    1790     1791     1790 1
    1791     1792     1791 1
    1792     1792     1793 1
    1793     1793     1794 1
    1794     1794     1789 1
    1795     1795     1796 1
    1796     1797     1796 1
    1797     1798     1797 1
    1798     1798     1799 1
    1799     1799     1800 1
    1800     1800     1795 1
    1801     1801     1802 1
    1802     1803     1802 1
    1803     1804     1803 1
    1804     1804     1805 1
    1805     1805     1806 1
    1806     1806     1801 1
    1807     1807     1808 1
    1808     1809     1808 1
    1809     1810     1809 1
    1810     1810     1811 1
    1811     1811     1812 1
    1812     1812     1807 1
    1813     1813     1814 1
    1814     1815     1814 1
    1815     1816     1815 1
    1816     1816     1817 1
    1817     1817     1818 1
    1818     1818     1813 1
    1819     1819     1820 1
    1820     1821     1820 1
    1821     1822     1821 1
    1822     1822     1823 1
    1823     1823     1824 1
    1824     1824     1819 1
    1825     1825     1826 1
    1826     1827     1826 1
    1827     1828     1827 1
    1828     1828     1829 1
    1829     1829     1830 1
    1830     1830     1825 1
    1831     1831     1832 1
    1832     1833     1832 1
    1833     1834     1833 1
    1834     1834     1835 1
    1835     1835     1836 1
    1836     1836     1831 1
    1837     1837     1838 1
    1838     1839     1838 1
    1839     1840     1839 1
    1840     1840     1841 1
    1841     1841     1842 1
    1842     1842     1837 1
    1843     1843     1844 1
    1844     1845     1844 1
    1845     1846     1845 1
    1846     1846     1847 1
    1847     1847     1848 1
    1848     1848     1843 1
    1849     1849     1850 1
    1850     1851     1850 1
    1851     1852     1851 1
    1852     1852     1853 1
    1853     1853     1854 1
    1854     1854     1849 1
    1855     1855     1856 1
    1856     1857     1856 1
    1857     1858     1857 1
    1858     1858     1859 1
    1859     1859     1860 1
    1860     1860     1855 1
    1861     1861     1862 1
    1862     1863     1862 1
    1863     1864     1863 1
    1864     1864     1865 1
    1865     1865     1866 1
    1866     1866     1861 1
    1867     1867     1868 1
    1868     1869     1868 1
    1869     1870     1869 1
    1870     1870     1871 1
    1871     1871     1872 1
    1872     1872     1867 1
    1873     1873     1874 1
    1874     1875     1874 1
    1875     1876     1875 1
    1876     1876     1877 1
    1877     1877     1878 1
    1878     1878     1873 1
    1879     1879     1880 1
    1880     1881     1880 1
    1881     1882     1881 1
    1882     1882     1883 1
    1883     1883     1884 1
    1884     1884     1879 1
    1885     1885     1886 1
    1886     1887     1886 1
    1887     1888     1887 1
    1888     1888     1889 1
    1889     1889     1890 1
    1890     1890     1885 1
    1891     1891     1892 1
    1892     1893     1892 1
    1893     1894     1893 1
    1894     1894     1895 1
    1895     1895     1896 1
    1896     1896     1891 1
    1897     1897     1898 1
    1898     1899     1898 1
    1899     1900     1899 1
    1900     1900     1901 1
    1901     1901     1902 1
    1902     1902     1897 1
    1903     1903     1904 1
    1904     1905     1904 1
    1905     1906     1905 1
    1906     1906     1907 1
    1907     1907     1908 1
    1908     1908     1903 1
    1909     1909     1910 1
    1910     1911     1910 1
    1911     1912     1911 1
    1912     1912     1913 1
    1913     1913     1914 1
    1914     1914     1909 1
    1915     1915     1916 1
    1916     1917     1916 1
    1917     1918     1917 1
    1918     1918     1919 1
    1919     1919     1920 1
    1920     1920     1915 1
    1921     1921     1922 1
    1922     1923     1922 1
    1923     1924     1923 1
    1924     1924     1925 1
    1925     1925     1926 1
    1926     1926     1921 1
    1927     1927     1928 1
    1928     1929     1928 1
    1929     1930     1929 1
    1930     1930     1931 1
    1931     1931     1932 1
    1932     1932     1927 1
    1933     1933     1934 1
    1934     1935     1934 1
    1935     1936     1935 1
    1936     1936     1937 1
    1937     1937     1938 1
    1938     1938     1933 1
    1939     1939     1940 1
    1940     1941     1940 1
    1941     1942     1941 1
    1942     1942     1943 1
    1943     1943     1944 1
    1944     1944     1939 1
    1945     1945     1946 1
    1946     1947     1946 1
    1947     1948     1947 1
    1948     1948     1949 1
    1949     1949     1950 1
    1950     1950     1945 1
    1951     1951     1952 1
    1952     1953     1952 1
    1953     1954     1953 1
    1954     1954     1955 1
    1955     1955     1956 1
    1956     1956     1951 1
    1957     1957     1958 1
    1958     1959     1958 1
    1959     1960     1959 1
    1960     1960     1961 1
    1961     1961     1962 1
    1962     1962     1957 1
    1963     1963     1964 1
    1964     1965     1964 1
    1965     1966     1965 1
    1966     1966     1967 1
    1967     1967     1968 1
    1968     1968     1963 1
    1969     1969     1970 1
    1970     1971     1970 1
    1971     1972     1971 1
    1972     1972     1973 1
    1973     1973     1974 1
    1974     1974     1969 1
    1975     1975     1976 1
    1976     1977     1976 1
    1977     1978     1977 1
    1978     1978     1979 1
    1979     1979     1980 1
    1980     1980     1975 1
    1981     1981     1982 1
    1982     1983     1982 1
    1983     1984     1983 1
    1984     1984     1985 1
    1985     1985     1986 1
    1986     1986     1981 1
    1987     1987     1988 1
    1988     1989     1988 1
    1989     1990     1989 1
    1990     1990     1991 1
    1991     1991     1992 1
    1992     1992     1987 1
    1993     1993     1994 1
    1994     1995     1994 1
    1995     1996     1995 1
    1996     1996     1997 1
    1997     1997     1998 1
    1998     1998     1993 1
    1999     1999     2000 1
    2000     2001     2000 1
    2001     2002     2001 1
    2002     2002     2003 1
    2003     2003     2004 1
    2004     2004     1999 1
    2005     2005     2006 1
    2006     2007     2006 1
    2007     2008     2007 1
    2008     2008     2009 1
    2009     2009     2010 1
    2010     2010     2005 1
    2011     2011     2012 1
    2012     2013     2012 1
    2013     2014     2013 1
    2014     2014     2015 1
    2015     2015     2016 1
    2016     2016     2011 1
    2017     2017     2018 1
    2018     2019     2018 1
    2019     2020     2019 1
    2020     2020     2021 1
    2021     2021     2022 1
    2022     2022     2017 1
    2023     2023     2024 1
    2024     2025     2024 1
    2025     2026     2025 1
    2026     2026     2027 1
    2027     2027     2028 1
    2028     2028     2023 1
    2029     2029     2030 1
    2030     2031     2030 1
    2031     2032     2031 1
    2032     2032     2033 1
    2033     2033     2034 1
    2034     2034     2029 1
    2035     2035     2036 1
    2036     2037     2036 1
    2037     2038     2037 1
    2038     2038     2039 1
    2039     2039     2040 1
    2040     2040     2035 1
    2041     2041     2042 1
    2042     2043     2042 1
    2043     2044     2043 1
    2044     2044     2045 1
    2045     2045     2046 1
    2046     2046     2041 1
    2047     2047     2048 1
    2048     2049     2048 1
    2049     2050     2049 1
    2050     2050     2051 1
    2051     2051     2052 1
    2052     2052     2047 1
    2053     2053     2054 1
    2054     2055     2054 1
    2055     2056     2055 1
    2056     2056     2057 1
    2057     2057     2058 1
    2058     2058     2053 1
    2059     2059     2060 1
    2060     2061     2060 1
    2061     2062     2061 1
    2062     2062     2063 1
    2063     2063     2064 1
    2064     2064     2059 1
    2065     2065     2066 1
    2066     2067     2066 1
    2067     2068     2067 1
    2068     2068     2069 1
    2069     2069     2070 1
    2070     2070     2065 1
    2071     2071     2072 1
    2072     2073     2072 1
    2073     2074     2073 1
    2074     2074     2075 1
    2075     2075     2076 1
    2076     2076     2071 1
    2077     2077     2078 1
    2078     2079     2078 1
    2079     2080     2079 1
    2080     2080     2081 1
    2081     2081     2082 1
    2082     2082     2077 1
    2083     2083     2084 1
    2084     2085     2084 1
    2085     2086     2085 1
    2086     2086     2087 1
    2087     2087     2088 1
    2088     2088     2083 1
    2089     2089     2090 1
    2090     2091     2090 1
    2091     2092     2091 1
    2092     2092     2093 1
    2093     2093     2094 1
    2094     2094     2089 1
    2095     2095     2096 1
    2096     2097     2096 1
    2097     2098     2097 1
    2098     2098     2099 1
    2099     2099     2100 1
    2100     2100     2095 1
    2101     2101     2102 1
    2102     2103     2102 1
    2103     2104     2103 1
    2104     2104     2105 1
    2105     2105     2106 1
    2106     2106     2101 1
    2107     2107     2108 1
    2108     2109     2108 1
    2109     2110     2109 1
    2110     2110     2111 1
    2111     2111     2112 1
    2112     2112     2107 1
    2113     2113     2114 1
    2114     2115     2114 1
    2115     2116     2115 1
    2116     2116     2117 1
    2117     2117     2118 1
    2118     2118     2113 1
    2119     2119     2120 1
    2120     2121     2120 1
    2121     2122     2121 1
    2122     2122     2123 1
    2123     2123     2124 1
    2124     2124     2119 1
    2125     2125     2126 1
    2126     2127     2126 1
    2127     2128     2127 1
    2128     2128     2129 1
    2129     2129     2130 1
    2130     2130     2125 1
    2131     2131     2132 1
    2132     2133     2132 1
    2133     2134     2133 1
    2134     2134     2135 1
    2135     2135     2136 1
    2136     2136     2131 1
    2137     2137     2138 1
    2138     2139     2138 1
    2139     2140     2139 1
    2140     2140     2141 1
    2141     2141     2142 1
    2142     2142     2137 1
    2143     2143     2144 1
    2144     2145     2144 1
    2145     2146     2145 1
    2146     2146     2147 1
    2147     2147     2148 1
    2148     2148     2143 1
    2149     2149     2150 1
    2150     2151     2150 1
    2151     2152     2151 1
    2152     2152     2153 1
    2153     2153     2154 1
    2154     2154     2149 1
    2155     2155     2156 1
    2156     2157     2156 1
    2157     2158     2157 1
    2158     2158     2159 1
    2159     2159     2160 1
    2160     2160     2155 1
    2161     2161     2162 1
    2162     2163     2162 1
    2163     2164     2163 1
    2164     2164     2165 1
    2165     2165     2166 1
    2166     2166     2161 1
    2167     2167     2168 1
    2168     2169     2168 1
    2169     2170     2169 1
    2170     2170     2171 1
    2171     2171     2172 1
    2172     2172     2167 1
    2173     2173     2174 1
    2174     2175     2174 1
    2175     2176     2175 1
    2176     2176     2177 1
    2177     2177     2178 1
    2178     2178     2173 1
    2179     2179     2180 1
    2180     2181     2180 1
    2181     2182     2181 1
    2182     2182     2183 1
    2183     2183     2184 1
    2184     2184     2179 1
    2185     2185     2186 1
    2186     2187     2186 1
    2187     2188     2187 1
    2188     2188     2189 1
    2189     2189     2190 1
    2190     2190     2185 1
    2191     2191     2192 1
    2192     2193     2192 1
    2193     2194     2193 1
    2194     2194     2195 1
    2195     2195     2196 1
    2196     2196     2191 1
    2197     2197     2198 1
    2198     2199     2198 1
    2199     2200     2199 1
    2200     2200     2201 1
    2201     2201     2202 1
    2202     2202     2197 1
    2203     2203     2204 1
    2204     2205     2204 1
    2205     2206     2205 1
    2206     2206     2207 1
    2207     2207     2208 1
    2208     2208     2203 1
    2209     2209     2210 1
    2210     2211     2210 1
    2211     2212     2211 1
    2212     2212     2213 1
    2213     2213     2214 1
    2214     2214     2209 1
    2215     2215     2216 1
    2216     2217     2216 1
    2217     2218     2217 1
    2218     2218     2219 1
    2219     2219     2220 1
    2220     2220     2215 1
    2221     2221     2222 1
    2222     2223     2222 1
    2223     2224     2223 1
    2224     2224     2225 1
    2225     2225     2226 1
    2226     2226     2221 1
    2227     2227     2228 1
    2228     2229     2228 1
    2229     2230     2229 1
    2230     2230     2231 1
    2231     2231     2232 1
    2232     2232     2227 1
    2233     2233     2234 1
    2234     2235     2234 1
    2235     2236     2235 1
    2236     2236     2237 1
    2237     2237     2238 1
    2238     2238     2233 1
    2239     2239     2240 1
    2240     2241     2240 1
    2241     2242     2241 1
    2242     2242     2243 1
    2243     2243     2244 1
    2244     2244     2239 1
    2245     2245     2246 1
    2246     2247     2246 1
    2247     2248     2247 1
    2248     2248     2249 1
    2249     2249     2250 1
    2250     2250     2245 1
    2251     2251     2252 1
    2252     2253     2252 1
    2253     2254     2253 1
    2254     2254     2255 1
    2255     2255     2256 1
    2256     2256     2251 1
    2257     2257     2258 1
    2258     2259     2258 1
    2259     2260     2259 1
    2260     2260     2261 1
    2261     2261     2262 1
    2262     2262     2257 1
    2263     2263     2264 1
    2264     2265     2264 1
    2265     2266     2265 1
    2266     2266     2267 1
    2267     2267     2268 1
    2268     2268     2263 1
    2269     2269     2270 1
    2270     2271     2270 1
    2271     2272     2271 1
    2272     2272     2273 1
    2273     2273     2274 1
    2274     2274     2269 1
    2275     2275     2276 1
    2276     2277     2276 1
    2277     2278     2277 1
    2278     2278     2279 1
    2279     2279     2280 1
    2280     2280     2275 1
    2281     2281     2282 1
    2282     2283     2282 1
    2283     2284     2283 1
    2284     2284     2285 1
    2285     2285     2286 1
    2286     2286     2281 1
    2287     2287     2288 1
    2288     2289     2288 1
    2289     2290     2289 1
    2290     2290     2291 1
    2291     2291     2292 1
    2292     2292     2287 1
    2293     2293     2294 1
    2294     2295     2294 1
    2295     2296     2295 1
    2296     2296     2297 1
    2297     2297     2298 1
    2298     2298     2293 1
    2299     2299     2300 1
    2300     2301     2300 1
    2301     2302     2301 1
    2302     2302     2303 1
    2303     2303     2304 1
    2304     2304     2299 1
    2305     2305     2306 1
    2306     2307     2306 1
    2307     2308     2307 1
    2308     2308     2309 1
    2309     2309     2310 1
    2310     2310     2305 1
    2311     2311     2312 1
    2312     2313     2312 1
    2313     2314     2313 1
    2314     2314     2315 1
    2315     2315     2316 1
    2316     2316     2311 1
    2317     2317     2318 1
    2318     2319     2318 1
    2319     2320     2319 1
    2320     2320     2321 1
    2321     2321     2322 1
    2322     2322     2317 1
    2323     2323     2324 1
    2324     2325     2324 1
    2325     2326     2325 1
    2326     2326     2327 1
    2327     2327     2328 1
    2328     2328     2323 1
    2329     2329     2330 1
    2330     2331     2330 1
    2331     2332     2331 1
    2332     2332     2333 1
    2333     2333     2334 1
    2334     2334     2329 1
    2335     2335     2336 1
    2336     2337     2336 1
    2337     2338     2337 1
    2338     2338     2339 1
    2339     2339     2340 1
    2340     2340     2335 1
    2341     2341     2342 1
    2342     2343     2342 1
    2343     2344     2343 1
    2344     2344     2345 1
    2345     2345     2346 1
    2346     2346     2341 1
    2347     2347     2348 1
    2348     2349     2348 1
    2349     2350     2349 1
    2350     2350     2351 1
    2351     2351     2352 1
    2352     2352     2347 1
    2353     2353     2354 1
    2354     2355     2354 1
    2355     2356     2355 1
    2356     2356     2357 1
    2357     2357     2358 1
    2358     2358     2353 1
    2359     2359     2360 1
    2360     2361     2360 1
    2361     2362     2361 1
    2362     2362     2363 1
    2363     2363     2364 1
    2364     2364     2359 1
    2365     2365     2366 1
    2366     2367     2366 1
    2367     2368     2367 1
    2368     2368     2369 1
    2369     2369     2370 1
    2370     2370     2365 1
    2371     2371     2372 1
    2372     2373     2372 1
    2373     2374     2373 1
    2374     2374     2375 1
    2375     2375     2376 1
    2376     2376     2371 1
    2377     2377     2378 1
    2378     2379     2378 1
    2379     2380     2379 1
    2380     2380     2381 1
    2381     2381     2382 1
    2382     2382     2377 1
    2383     2383     2384 1
    2384     2385     2384 1
    2385     2386     2385 1
    2386     2386     2387 1
    2387     2387     2388 1
    2388     2388     2383 1
    2389     2389     2390 1
    2390     2391     2390 1
    2391     2392     2391 1
    2392     2392     2393 1
    2393     2393     2394 1
    2394     2394     2389 1
    2395     2395     2396 1
    2396     2397     2396 1
    2397     2398     2397 1
    2398     2398     2399 1
    2399     2399     2400 1
    2400     2400     2395 1
@<TRIPOS>SUBSTRUCTURE
       1 RES             1 RESIDUE    0 1    ROOT      0
