@<TRIPOS>MOLECULE
BEN
    6    6    1    0    0
SMALL
NO_CHARGES
****
Energy = 0

@<TRIPOS>ATOM
      1  _CH       0.00000   0.00000   0.00000    C    1  BEN        0.000000
      2  _CH       1.40000   0.00000   0.00000    C    1  BEN        0.000000
      3  _CH       2.10000   1.21244   0.00000    C    1  BEN        0.000000
      4  _CH       1.40000   2.42487   0.00000    C    1  BEN        0.000000
      5  _CH       0.00000   2.42487   0.00000    C    1  BEN        0.000000
      6  _CH      -0.70000   1.21244   0.00000    C    1  BEN        0.000000
@<TRIPOS>BOND
    1     1     2  1
    2     1     6  2
    3     2     3  2
    4     3     4  1
    5     4     5  2
    6     5     6  1

@<TRIPOS>SUBSTRUCTURE
1 ****        1 TEMP                        0 ****  **** 0 ROOT

#generated by VMD
