@<TRIPOS>MOLECULE
ETO
    9    8    1    0    0
SMALL
NO_CHARGES
****
Energy = 0

@<TRIPOS>ATOM
      1  C         9.81590  16.23519  15.10426    C    1  ETO        0.000000
      2  C         9.08230  17.04506  16.17373    C    1  ETO        0.000000
      3  O         9.27716  16.64993  17.51314    O    1  ETO        0.000000
      4  H        10.19984  16.49403  17.64498    H    1  ETO        0.000000
      5  H         8.03382  17.00899  15.87795    H    1  ETO        0.000000
      6  H         9.33296  18.10582  16.18200    H    1  ETO        0.000000
      7  H        10.82002  16.65701  15.14800    H    1  ETO        0.000000
      8  H         9.41094  16.44303  14.11385    H    1  ETO        0.000000
      9  H         9.82400  15.15086  15.21501    H    1  ETO        0.000000
@<TRIPOS>BOND
    1     1     2  1
    2     1     7  1
    3     1     8  1
    4     1     9  1
    5     2     3  1
    6     2     5  1
    7     2     6  1
    8     3     4  1

@<TRIPOS>SUBSTRUCTURE
1 ****        1 TEMP                        0 ****  **** 0 ROOT

#generated by VMD
