@<TRIPOS>MOLECULE
PEN
    5    4    1    0    0
SMALL
NO_CHARGES
****
Energy = 0

@<TRIPOS>ATOM
      1  _CH3     31.32997  18.85158   6.99510    C    1  PEN        0.000000
      2  _CH2     31.44911  20.34239   6.62782    C    1  PEN        0.000000
      3  _CH2     32.64794  20.47312   5.67005    C    1  PEN        0.000000
      4  _CH2     33.17383  21.89984   5.42610    C    1  PEN        0.000000
      5  _CH3     34.36407  21.89200   4.44892    C    1  PEN        0.000000
@<TRIPOS>BOND
    1     1     2  1
    2     2     3  1
    3     3     4  1
    4     4     5  1

@<TRIPOS>SUBSTRUCTURE
1 ****        1 TEMP                        0 ****  **** 0 ROOT

#generated by VMD
