@<TRIPOS>MOLECULE
RES
900 0 1 0 1
SMALL
NO_CHARGES
@<TRIPOS>CRYSIN
   39.9800    39.9800    39.9800    90.0000    90.0000    90.0000  1  1
@<TRIPOS>ATOM
       1 _CH4        32.5326    37.5475    37.2136 CH4           1 RES
       2 _CH4        28.4950    19.1035    36.5956 CH4           1 RES
       3 _CH4         8.2309    26.4890    26.4358 CH4           1 RES
       4 _CH4        22.7548    16.2205    32.1538 CH4           1 RES
       5 _CH4        27.4383    34.6793     8.5721 CH4           1 RES
       6 _CH4         7.3770    12.2660    21.1420 CH4           1 RES
       7 _CH4        16.6784    20.9519    35.0860 CH4           1 RES
       8 _CH4        12.4984     2.0000    34.5903 CH4           1 RES
       9 _CH4        35.2859    17.8460    37.9800 CH4           1 RES
      10 _CH4         8.3494     5.7016    31.7395 CH4           1 RES
      11 _CH4        32.9493    12.6732    24.7852 CH4           1 RES
      12 _CH4        28.1479    30.6159    21.0325 CH4           1 RES
      13 _CH4         7.4429     4.9838    25.8813 CH4           1 RES
      14 _CH4        30.6108    36.3870    22.0770 CH4           1 RES
      15 _CH4        25.3832    22.1390    16.5365 CH4           1 RES
      16 _CH4        36.1376    16.5493    30.9829 CH4           1 RES
      17 _CH4         7.5839    34.5135    33.5188 CH4           1 RES
      18 _CH4        16.9268    18.2781    35.9999 CH4           1 RES
      19 _CH4        18.8527     2.5769    13.3881 CH4           1 RES
      20 _CH4        14.7397    12.3264    34.8303 CH4           1 RES
      21 _CH4        15.3281    28.7832    16.7315 CH4           1 RES
      22 _CH4        17.3212     9.6722     6.4548 CH4           1 RES
      23 _CH4         4.6501    12.7109    25.8801 CH4           1 RES
      24 _CH4        19.3390    24.5066     6.6989 CH4           1 RES
      25 _CH4        21.0404    15.8251    37.0156 CH4           1 RES
      26 _CH4         9.4008    23.9433    22.1337 CH4           1 RES
      27 _CH4        18.3880    30.7029     5.9307 CH4           1 RES
      28 _CH4        19.7738    25.1097    33.2976 CH4           1 RES
      29 _CH4         6.6740    26.7502    37.9393 CH4           1 RES
      30 _CH4        33.2090    37.5113    15.3185 CH4           1 RES
      31 _CH4        29.3171    16.2441    26.6870 CH4           1 RES
      32 _CH4         2.0000    36.9598    14.4586 CH4           1 RES
      33 _CH4         4.7995     6.3026    35.3057 CH4           1 RES
      34 _CH4        30.1435     7.0587    19.2540 CH4           1 RES
      35 _CH4        35.3066    21.4645    11.3678 CH4           1 RES
      36 _CH4         3.3720    13.7640    13.7264 CH4           1 RES
      37 _CH4        26.1405    18.2662    24.8825 CH4           1 RES
      38 _CH4        30.7252     7.2205    14.8031 CH4           1 RES
      39 _CH4        37.9612    13.5324    17.2511 CH4           1 RES
      40 _CH4         7.6468     2.1653    30.8113 CH4           1 RES
      41 _CH4        27.5785    15.6647     7.6264 CH4           1 RES
      42 _CH4        23.3544    10.4084    32.8005 CH4           1 RES
      43 _CH4         2.6682    30.0672    10.4284 CH4           1 RES
      44 _CH4        33.9055    15.5882     4.1183 CH4           1 RES
      45 _CH4        27.8104    11.7948    27.0175 CH4           1 RES
      46 _CH4        31.9691    28.9812     8.6636 CH4           1 RES
      47 _CH4        21.1140    26.8207     2.7576 CH4           1 RES
      48 _CH4        31.7849    26.7081    35.8045 CH4           1 RES
      49 _CH4        20.8756     9.8364    31.5811 CH4           1 RES
      50 _CH4        16.3711     7.6928    13.2799 CH4           1 RES
      51 _CH4         4.7342    19.6130    30.0388 CH4           1 RES
      52 _CH4         5.9229    36.5076    34.0985 CH4           1 RES
      53 _CH4        13.6946    22.4951    34.6434 CH4           1 RES
      54 _CH4        10.5838     3.7663    27.5119 CH4           1 RES
      55 _CH4        12.8754    32.8533    19.4958 CH4           1 RES
      56 _CH4         3.1260    13.5920    36.5791 CH4           1 RES
      57 _CH4         7.4138    27.4077    13.4349 CH4           1 RES
      58 _CH4         9.4388     4.9421    37.9801 CH4           1 RES
      59 _CH4         6.7022    25.0416    32.3574 CH4           1 RES
      60 _CH4        15.2609    28.5844    22.9160 CH4           1 RES
      61 _CH4        19.4628    37.7894    19.0063 CH4           1 RES
      62 _CH4        14.0683    35.9251    34.6252 CH4           1 RES
      63 _CH4        28.4288    22.0100    26.3283 CH4           1 RES
      64 _CH4        17.9778    28.4885    35.5091 CH4           1 RES
      65 _CH4        37.0146    25.1480    23.8033 CH4           1 RES
      66 _CH4        35.0941     5.5298    37.9801 CH4           1 RES
      67 _CH4         8.6428     4.0177     7.7021 CH4           1 RES
      68 _CH4        29.1627    23.7661    14.2114 CH4           1 RES
      69 _CH4         7.2410     6.5974    37.4745 CH4           1 RES
      70 _CH4        35.3620     5.1652    25.0605 CH4           1 RES
      71 _CH4        16.6141    21.8845    27.1320 CH4           1 RES
      72 _CH4        18.7433    36.1902     3.3578 CH4           1 RES
      73 _CH4        16.1019    14.2431    25.7723 CH4           1 RES
      74 _CH4        33.2976    22.0312    16.6305 CH4           1 RES
      75 _CH4        34.6607    28.3136    36.2573 CH4           1 RES
      76 _CH4        32.9757    28.9410    19.1665 CH4           1 RES
      77 _CH4         3.4619     9.4363    32.8747 CH4           1 RES
      78 _CH4        27.3661    27.2063     5.8604 CH4           1 RES
      79 _CH4         9.7063    13.0848    25.0890 CH4           1 RES
      80 _CH4        10.1327     5.9183    29.6341 CH4           1 RES
      81 _CH4         2.2117    30.7236     6.8147 CH4           1 RES
      82 _CH4         6.4231    18.7019    17.6460 CH4           1 RES
      83 _CH4         7.8935    25.9643     2.4048 CH4           1 RES
      84 _CH4        27.6189    15.6157    32.0658 CH4           1 RES
      85 _CH4         5.9416    16.0973    34.5989 CH4           1 RES
      86 _CH4         9.1369    29.4627    20.5406 CH4           1 RES
      87 _CH4         3.3509    23.2112     9.4109 CH4           1 RES
      88 _CH4        21.2268    32.1407     9.5443 CH4           1 RES
      89 _CH4        34.4003     6.8839    10.7836 CH4           1 RES
      90 _CH4         4.7287     6.5045    15.7610 CH4           1 RES
      91 _CH4        19.9151    16.3416    24.9633 CH4           1 RES
      92 _CH4        13.3651     4.4828    22.8848 CH4           1 RES
      93 _CH4         2.8371    13.7378    26.6350 CH4           1 RES
      94 _CH4        31.4754    31.9821     4.9694 CH4           1 RES
      95 _CH4        10.5283    18.6114    21.5351 CH4           1 RES
      96 _CH4        11.1520     9.4869    26.1510 CH4           1 RES
      97 _CH4        31.5892    31.6994     7.3391 CH4           1 RES
      98 _CH4        10.2576    28.8193     4.1748 CH4           1 RES
      99 _CH4        17.6775    33.7790    11.0813 CH4           1 RES
     100 _CH4         9.4058    31.9123    31.7625 CH4           1 RES
     101 _CH4        15.6665     6.1446    33.7256 CH4           1 RES
     102 _CH4        33.2504    20.6133    14.0775 CH4           1 RES
     103 _CH4        37.4987    16.2007    37.0286 CH4           1 RES
     104 _CH4        30.5437    16.6281    30.1466 CH4           1 RES
     105 _CH4         3.3488    36.5650    27.1893 CH4           1 RES
     106 _CH4        36.3479    18.3881     4.4611 CH4           1 RES
     107 _CH4        25.9082    18.5745    35.0712 CH4           1 RES
     108 _CH4        20.3739    29.5309     7.7209 CH4           1 RES
     109 _CH4        31.7477     6.2356     4.0981 CH4           1 RES
     110 _CH4         8.6573    19.6227    20.2093 CH4           1 RES
     111 _CH4        16.9306    25.3528    18.6550 CH4           1 RES
     112 _CH4        25.4486    21.6046    37.8788 CH4           1 RES
     113 _CH4        12.0863    30.1732    37.9802 CH4           1 RES
     114 _CH4         4.1466    21.2979    37.9159 CH4           1 RES
     115 _CH4        17.9416    31.3873    11.3362 CH4           1 RES
     116 _CH4        16.0774    30.8825    34.5461 CH4           1 RES
     117 _CH4         6.0970    19.4311     5.2519 CH4           1 RES
     118 _CH4         4.5799    16.8869     4.8193 CH4           1 RES
     119 _CH4        19.2314    21.6804     8.3928 CH4           1 RES
     120 _CH4         3.0769    33.9298    20.3584 CH4           1 RES
     121 _CH4        28.2850    28.3532    35.7554 CH4           1 RES
     122 _CH4        20.7268     2.3378     4.7488 CH4           1 RES
     123 _CH4        13.5928     7.7529    28.8910 CH4           1 RES
     124 _CH4        26.1129    35.1791    35.9304 CH4           1 RES
     125 _CH4        12.9977    37.1515     5.4276 CH4           1 RES
     126 _CH4        20.7404    21.6542    31.7348 CH4           1 RES
     127 _CH4        16.3023    11.0383     9.8367 CH4           1 RES
     128 _CH4        21.3792    20.4003    29.7228 CH4           1 RES
     129 _CH4        25.6420    28.0954     2.6776 CH4           1 RES
     130 _CH4        25.1824    17.5856    15.8626 CH4           1 RES
     131 _CH4        37.5156    14.5400    13.1901 CH4           1 RES
     132 _CH4         6.7926    33.3708    14.7043 CH4           1 RES
     133 _CH4        29.7799    28.8053    30.8267 CH4           1 RES
     134 _CH4         5.7785    33.2949    20.5288 CH4           1 RES
     135 _CH4        23.7479    19.1152    35.3559 CH4           1 RES
     136 _CH4        23.1130    12.3188    21.5564 CH4           1 RES
     137 _CH4        14.7536     6.9194     9.1654 CH4           1 RES
     138 _CH4        11.2232    10.2340    36.1181 CH4           1 RES
     139 _CH4        15.9474    17.5816     5.1975 CH4           1 RES
     140 _CH4        12.9411    21.1186    11.5964 CH4           1 RES
     141 _CH4         3.1510    14.2873    10.8683 CH4           1 RES
     142 _CH4        19.5199    30.5491    19.4577 CH4           1 RES
     143 _CH4        37.1180    25.3385    36.6781 CH4           1 RES
     144 _CH4         2.1316    14.5569    21.5242 CH4           1 RES
     145 _CH4        18.2398    24.6869    23.6728 CH4           1 RES
     146 _CH4        33.5242     4.9065    12.8483 CH4           1 RES
     147 _CH4         6.2556    14.7224    15.5411 CH4           1 RES
     148 _CH4        36.5815    12.1087    34.6861 CH4           1 RES
     149 _CH4        35.5520    30.8537     2.3177 CH4           1 RES
     150 _CH4        20.3323     9.8346    25.8966 CH4           1 RES
     151 _CH4        14.9795    17.7774    25.9320 CH4           1 RES
     152 _CH4         9.4576    34.8210    15.2141 CH4           1 RES
     153 _CH4        33.9439    23.5242    21.4812 CH4           1 RES
     154 _CH4        25.9974    13.6244    17.8000 CH4           1 RES
     155 _CH4        30.9453    32.5402    31.9560 CH4           1 RES
     156 _CH4        16.2734    35.6066     3.9929 CH4           1 RES
     157 _CH4        15.7413    36.1261    20.0835 CH4           1 RES
     158 _CH4        30.6177    26.6218    30.4836 CH4           1 RES
     159 _CH4        26.4599    37.4789    27.8430 CH4           1 RES
     160 _CH4        33.5164     8.1582    32.4745 CH4           1 RES
     161 _CH4        19.6322    27.6125    36.7768 CH4           1 RES
     162 _CH4        24.4783    29.1814    21.5629 CH4           1 RES
     163 _CH4         6.4170    32.2874     1.9999 CH4           1 RES
     164 _CH4        37.1672     9.2399    17.7953 CH4           1 RES
     165 _CH4        25.3273    13.6526    33.3671 CH4           1 RES
     166 _CH4        14.3462    14.2938     6.8574 CH4           1 RES
     167 _CH4         7.9428     7.5860     4.9020 CH4           1 RES
     168 _CH4         8.9647    19.8736    10.7910 CH4           1 RES
     169 _CH4        26.7939    18.1563     6.9580 CH4           1 RES
     170 _CH4         9.4885    12.0709     7.2866 CH4           1 RES
     171 _CH4         1.9997    19.4028     2.7821 CH4           1 RES
     172 _CH4         9.9722    24.6890     2.8611 CH4           1 RES
     173 _CH4        18.4381    22.2294    32.5597 CH4           1 RES
     174 _CH4        33.5685    36.3613     2.4436 CH4           1 RES
     175 _CH4        11.7623    19.6152    26.7064 CH4           1 RES
     176 _CH4        35.9848    33.6455    13.1137 CH4           1 RES
     177 _CH4        22.1226    29.1910     9.1545 CH4           1 RES
     178 _CH4        16.4606    31.2262    19.1899 CH4           1 RES
     179 _CH4        13.1500     2.4557    17.0998 CH4           1 RES
     180 _CH4        35.4603    18.3448    12.7869 CH4           1 RES
     181 _CH4        23.4855    22.8156    35.0525 CH4           1 RES
     182 _CH4        11.9079     2.7007    31.9144 CH4           1 RES
     183 _CH4        33.6114    18.2576     7.0855 CH4           1 RES
     184 _CH4        35.7431     3.5519     4.7956 CH4           1 RES
     185 _CH4         7.0017    21.6180     8.0283 CH4           1 RES
     186 _CH4        23.0308    27.5672    17.3939 CH4           1 RES
     187 _CH4        32.2609    12.2700     3.4645 CH4           1 RES
     188 _CH4         9.1413     8.0416    27.4379 CH4           1 RES
     189 _CH4         5.6213    13.9328    13.3989 CH4           1 RES
     190 _CH4        19.0634     9.4406     2.1544 CH4           1 RES
     191 _CH4         2.9077     2.3226     6.9283 CH4           1 RES
     192 _CH4        28.1232    35.9281     6.0157 CH4           1 RES
     193 _CH4        19.8832    21.0281     4.8812 CH4           1 RES
     194 _CH4        31.3857    25.0934    37.9802 CH4           1 RES
     195 _CH4        34.6993    34.2684    16.4947 CH4           1 RES
     196 _CH4        26.6275    21.3915     6.8002 CH4           1 RES
     197 _CH4         5.3264    23.1601    22.0140 CH4           1 RES
     198 _CH4         8.9732    32.5361     7.4846 CH4           1 RES
     199 _CH4        31.5331    32.1580    20.6337 CH4           1 RES
     200 _CH4        31.3570    26.8533    17.5897 CH4           1 RES
     201 _CH4        31.9692    32.4809    37.4692 CH4           1 RES
     202 _CH4        36.2919    33.3870     6.8991 CH4           1 RES
     203 _CH4         8.5980    24.6021    37.0059 CH4           1 RES
     204 _CH4        23.1126    17.2043    20.9864 CH4           1 RES
     205 _CH4        12.1138     5.3851    30.5323 CH4           1 RES
     206 _CH4        21.8340     4.1978    22.7281 CH4           1 RES
     207 _CH4        22.5795    13.9198    31.0122 CH4           1 RES
     208 _CH4        22.3745    27.5491    34.5980 CH4           1 RES
     209 _CH4        36.4195    26.0107     7.4844 CH4           1 RES
     210 _CH4        11.0527    15.5328    24.5460 CH4           1 RES
     211 _CH4        24.0940    26.5177    19.8431 CH4           1 RES
     212 _CH4        37.0524     8.0658     8.5866 CH4           1 RES
     213 _CH4        22.5656    34.7038    17.3212 CH4           1 RES
     214 _CH4         6.9175    12.7050     6.1657 CH4           1 RES
     215 _CH4        15.8375    31.3528    30.6294 CH4           1 RES
     216 _CH4         8.0708    12.5861    30.1057 CH4           1 RES
     217 _CH4        22.8887    35.5543    14.3799 CH4           1 RES
     218 _CH4         4.6558     2.0000    19.5827 CH4           1 RES
     219 _CH4        24.1642    17.2289    10.9559 CH4           1 RES
     220 _CH4        15.5256    14.9946     9.8462 CH4           1 RES
     221 _CH4        10.8308     4.1509    34.8445 CH4           1 RES
     222 _CH4         7.5068    22.6328    30.2123 CH4           1 RES
     223 _CH4        18.9192    23.2320    30.0061 CH4           1 RES
     224 _CH4        22.9561    32.2797    16.5041 CH4           1 RES
     225 _CH4        18.9490    21.2744    14.6259 CH4           1 RES
     226 _CH4        14.8767    33.5350    31.6017 CH4           1 RES
     227 _CH4        25.0864     8.9843    35.4307 CH4           1 RES
     228 _CH4        11.5646    22.3070     4.9667 CH4           1 RES
     229 _CH4        23.9971    19.3616     7.4788 CH4           1 RES
     230 _CH4        22.8271     4.9276     6.8175 CH4           1 RES
     231 _CH4        35.8160    30.6590     9.3828 CH4           1 RES
     232 _CH4        11.1197    32.7220    36.1102 CH4           1 RES
     233 _CH4        14.4676    10.7759    14.6714 CH4           1 RES
     234 _CH4         3.3435     7.6226     2.2194 CH4           1 RES
     235 _CH4        21.2085    33.6362    20.5331 CH4           1 RES
     236 _CH4         7.5644    17.3593     8.5782 CH4           1 RES
     237 _CH4        37.9802     9.7487    11.1085 CH4           1 RES
     238 _CH4         3.3811    18.5598     5.7967 CH4           1 RES
     239 _CH4        24.3129    36.2338    37.2492 CH4           1 RES
     240 _CH4        16.8096    22.7909    18.6083 CH4           1 RES
     241 _CH4        28.7938    26.5461    37.5124 CH4           1 RES
     242 _CH4         5.9341    20.4607     2.0000 CH4           1 RES
     243 _CH4        21.7523    37.0129    35.2951 CH4           1 RES
     244 _CH4         8.2653    36.5212    31.6577 CH4           1 RES
     245 _CH4        29.0330    12.9066     5.5953 CH4           1 RES
     246 _CH4        19.8062    22.9331    36.8461 CH4           1 RES
     247 _CH4        11.6642    37.6491    36.7030 CH4           1 RES
     248 _CH4         5.5520     3.1691    26.1121 CH4           1 RES
     249 _CH4         6.2509    25.3160    22.1386 CH4           1 RES
     250 _CH4        12.5361     9.7111    24.0770 CH4           1 RES
     251 _CH4         9.9520    37.4137    19.1168 CH4           1 RES
     252 _CH4        19.8724    28.0449     4.1409 CH4           1 RES
     253 _CH4         8.5668    33.7798     3.8862 CH4           1 RES
     254 _CH4        30.3717    33.4196    22.0286 CH4           1 RES
     255 _CH4         7.5883     2.5589    11.2666 CH4           1 RES
     256 _CH4        25.0188    12.0799    31.2666 CH4           1 RES
     257 _CH4         5.4358    25.9755     6.2060 CH4           1 RES
     258 _CH4         9.7994    19.5304    16.5570 CH4           1 RES
     259 _CH4        10.7659    37.3664    23.3981 CH4           1 RES
     260 _CH4        32.1087    36.2831    30.4328 CH4           1 RES
     261 _CH4        32.5226    16.7538    14.3551 CH4           1 RES
     262 _CH4        26.8750     9.9671    21.2156 CH4           1 RES
     263 _CH4        37.9271    24.7728     4.9288 CH4           1 RES
     264 _CH4        25.7586    37.9801    32.0927 CH4           1 RES
     265 _CH4        10.5326    22.2950     9.7082 CH4           1 RES
     266 _CH4        12.4748    26.4193     3.1364 CH4           1 RES
     267 _CH4        11.9491    15.2018     7.2291 CH4           1 RES
     268 _CH4        24.5605    27.1545     8.1700 CH4           1 RES
     269 _CH4        11.5154     4.1899     6.3223 CH4           1 RES
     270 _CH4        31.3311     3.1366    37.9373 CH4           1 RES
     271 _CH4        28.7714    30.7338     4.9609 CH4           1 RES
     272 _CH4        37.7570    36.3270    33.9980 CH4           1 RES
     273 _CH4        18.7478    19.4241    23.9068 CH4           1 RES
     274 _CH4         4.7948    18.4133     2.0848 CH4           1 RES
     275 _CH4        37.4563    27.6846    29.5802 CH4           1 RES
     276 _CH4        31.7864    27.1016    26.0756 CH4           1 RES
     277 _CH4        17.2334    28.8292     3.1701 CH4           1 RES
     278 _CH4        21.0437    20.9054    36.6492 CH4           1 RES
     279 _CH4         3.2618    30.8719    34.4241 CH4           1 RES
     280 _CH4        34.1613    17.9347    17.4629 CH4           1 RES
     281 _CH4         8.5928    27.0426    34.6745 CH4           1 RES
     282 _CH4         5.1855    30.3615    35.8735 CH4           1 RES
     283 _CH4         7.2968    16.1959    36.4752 CH4           1 RES
     284 _CH4        25.6875     2.9660    16.0349 CH4           1 RES
     285 _CH4        16.6442    23.7351    29.6561 CH4           1 RES
     286 _CH4         5.3767     3.7796     7.9018 CH4           1 RES
     287 _CH4         8.0981    14.4723    10.3586 CH4           1 RES
     288 _CH4        29.9395     5.7843    28.7998 CH4           1 RES
     289 _CH4        12.5934    26.6784     7.7817 CH4           1 RES
     290 _CH4        37.0657     5.9910    35.6436 CH4           1 RES
     291 _CH4        28.7345    37.5180    23.2224 CH4           1 RES
     292 _CH4         3.5238     6.0364    32.8084 CH4           1 RES
     293 _CH4        20.1625    25.0878    36.2793 CH4           1 RES
     294 _CH4        32.0883    20.9511     8.5254 CH4           1 RES
     295 _CH4         2.3940    20.0911    11.1133 CH4           1 RES
     296 _CH4        20.5466    36.5778    23.0977 CH4           1 RES
     297 _CH4        10.4868    16.9217     5.7747 CH4           1 RES
     298 _CH4        15.1185     3.9146    29.0146 CH4           1 RES
     299 _CH4        28.0038     9.9978    16.5870 CH4           1 RES
     300 _CH4         8.5923    29.7729     5.2700 CH4           1 RES
     301 _CH4        22.5986    37.6735    20.7844 CH4           1 RES
     302 _CH4        22.2565    35.0091    25.0588 CH4           1 RES
     303 _CH4        31.4083    12.1092    19.2056 CH4           1 RES
     304 _CH4         8.6225     9.8190    19.3240 CH4           1 RES
     305 _CH4         7.1025     8.5268    31.2661 CH4           1 RES
     306 _CH4        28.7379     3.1473     3.3133 CH4           1 RES
     307 _CH4        13.1370     9.3261    27.1029 CH4           1 RES
     308 _CH4        16.7947    15.8909    30.2152 CH4           1 RES
     309 _CH4        17.6991    26.7217    20.8135 CH4           1 RES
     310 _CH4        37.9800    15.6031     2.4418 CH4           1 RES
     311 _CH4         6.4865     4.2815    35.6959 CH4           1 RES
     312 _CH4         9.1216    10.8297    33.5951 CH4           1 RES
     313 _CH4        27.1057     7.5263    32.5016 CH4           1 RES
     314 _CH4        20.6186    28.2425    28.1576 CH4           1 RES
     315 _CH4        27.1424     8.3322    19.7008 CH4           1 RES
     316 _CH4         5.0929    26.6769    35.6146 CH4           1 RES
     317 _CH4        19.8904     4.2445    29.2780 CH4           1 RES
     318 _CH4         5.5704    22.4435    16.7157 CH4           1 RES
     319 _CH4        11.7540    34.5195    13.3373 CH4           1 RES
     320 _CH4        27.7573    15.5146    11.1939 CH4           1 RES
     321 _CH4        30.0409     7.5243     2.5433 CH4           1 RES
     322 _CH4        27.5850    17.1396    33.8271 CH4           1 RES
     323 _CH4        10.6020    37.0527     3.0211 CH4           1 RES
     324 _CH4        18.4391    16.1160    35.2417 CH4           1 RES
     325 _CH4        25.0753    32.0422     2.8497 CH4           1 RES
     326 _CH4         5.8935     9.1905    27.5946 CH4           1 RES
     327 _CH4        36.2489     2.5559    31.1837 CH4           1 RES
     328 _CH4         8.5483    18.3373     4.4339 CH4           1 RES
     329 _CH4        10.8392    21.1691    36.2740 CH4           1 RES
     330 _CH4        26.2894    27.3973    30.0857 CH4           1 RES
     331 _CH4        33.4411    17.9774     1.9999 CH4           1 RES
     332 _CH4         4.4922     7.8923     4.3715 CH4           1 RES
     333 _CH4        29.6870    15.0154     6.1069 CH4           1 RES
     334 _CH4         9.8781    22.4377    32.9478 CH4           1 RES
     335 _CH4         5.7867    23.8690    35.7175 CH4           1 RES
     336 _CH4        23.0319    34.0381    12.7390 CH4           1 RES
     337 _CH4        30.4079    29.6040     3.4428 CH4           1 RES
     338 _CH4        10.7091    16.1908     3.3268 CH4           1 RES
     339 _CH4        22.1506    18.6112    31.5056 CH4           1 RES
     340 _CH4        19.7954    25.4324    20.9977 CH4           1 RES
     341 _CH4        25.3560    17.2875    31.6912 CH4           1 RES
     342 _CH4        11.7959    22.2713    16.8773 CH4           1 RES
     343 _CH4        23.0989     7.5596    27.0297 CH4           1 RES
     344 _CH4         7.4621     6.0016    16.5232 CH4           1 RES
     345 _CH4         5.1093    16.9494    27.8511 CH4           1 RES
     346 _CH4         2.9391     8.1511    30.1573 CH4           1 RES
     347 _CH4        13.6336    20.9373    17.0490 CH4           1 RES
     348 _CH4        32.4523    35.7285     5.4376 CH4           1 RES
     349 _CH4        23.6111     3.9933    37.4749 CH4           1 RES
     350 _CH4         5.6349    34.8488    23.7143 CH4           1 RES
     351 _CH4        19.9907    20.9540    19.5716 CH4           1 RES
     352 _CH4        37.9657    33.0273    27.9440 CH4           1 RES
     353 _CH4        23.6631     5.0051    31.2068 CH4           1 RES
     354 _CH4        30.6211    14.6730    20.8446 CH4           1 RES
     355 _CH4        19.4813    29.0071    12.1800 CH4           1 RES
     356 _CH4         8.0836    34.6268    35.7381 CH4           1 RES
     357 _CH4        37.9742    19.6915    29.8071 CH4           1 RES
     358 _CH4        11.6518    11.3058     6.6786 CH4           1 RES
     359 _CH4        15.1665    25.3221    25.6664 CH4           1 RES
     360 _CH4         5.5310     5.7064    20.4229 CH4           1 RES
     361 _CH4        36.8753    33.2270    32.9954 CH4           1 RES
     362 _CH4         9.9114    31.3290     3.1713 CH4           1 RES
     363 _CH4        35.8850    25.2753    17.2913 CH4           1 RES
     364 _CH4        12.8504     8.2455     6.0511 CH4           1 RES
     365 _CH4        32.7608    26.0116    13.5676 CH4           1 RES
     366 _CH4        20.9037    28.2233    23.6992 CH4           1 RES
     367 _CH4        33.6418     9.3402    13.2818 CH4           1 RES
     368 _CH4        16.0544    11.2013    17.0438 CH4           1 RES
     369 _CH4        10.5537    32.6555    19.6271 CH4           1 RES
     370 _CH4        37.9801    13.6045    30.4381 CH4           1 RES
     371 _CH4        33.5433     8.8460     6.6713 CH4           1 RES
     372 _CH4        16.2460     8.9140    17.5607 CH4           1 RES
     373 _CH4        34.8004    19.1648    15.5019 CH4           1 RES
     374 _CH4        29.3527    36.1442    11.4094 CH4           1 RES
     375 _CH4         8.4905    36.6935    16.7941 CH4           1 RES
     376 _CH4        29.6362     6.0353    22.0308 CH4           1 RES
     377 _CH4        36.0757    12.4510     3.4874 CH4           1 RES
     378 _CH4         3.6935     5.5256     7.4059 CH4           1 RES
     379 _CH4        37.2038    27.6599    17.4881 CH4           1 RES
     380 _CH4         2.6405    30.0852    30.9331 CH4           1 RES
     381 _CH4        11.1835     5.5772    22.1336 CH4           1 RES
     382 _CH4        31.5583    34.7108     2.9737 CH4           1 RES
     383 _CH4        24.9013    35.3217    19.0082 CH4           1 RES
     384 _CH4        21.0994    23.2153     3.5349 CH4           1 RES
     385 _CH4        12.0574    19.6808    18.0647 CH4           1 RES
     386 _CH4        19.9012    27.5413     8.5407 CH4           1 RES
     387 _CH4        36.7214    31.0098    26.8609 CH4           1 RES
     388 _CH4        12.5809    17.9213    19.6598 CH4           1 RES
     389 _CH4        19.1118    22.4288    22.4841 CH4           1 RES
     390 _CH4         8.3040    34.4612    22.4155 CH4           1 RES
     391 _CH4         6.9796    23.7711     8.5330 CH4           1 RES
     392 _CH4        12.6019    29.7285    20.9212 CH4           1 RES
     393 _CH4         3.8680     3.5976    12.0651 CH4           1 RES
     394 _CH4        12.9925    22.4643    25.2328 CH4           1 RES
     395 _CH4        37.3703    23.1413    21.2089 CH4           1 RES
     396 _CH4        25.5772    36.0931    16.6462 CH4           1 RES
     397 _CH4        29.4359    31.2840    37.5324 CH4           1 RES
     398 _CH4        24.7522    29.6551    34.6194 CH4           1 RES
     399 _CH4        19.8370     7.9337    30.8769 CH4           1 RES
     400 _CH4        33.2433    35.3141    17.8330 CH4           1 RES
     401 _CH4        16.7379    34.2695    29.6618 CH4           1 RES
     402 _CH4        34.8818     8.0451    27.7006 CH4           1 RES
     403 _CH4        36.9809    26.6941    19.5316 CH4           1 RES
     404 _CH4        13.5457    13.4520     9.1776 CH4           1 RES
     405 _CH4        29.1300    13.6461    23.7282 CH4           1 RES
     406 _CH4        31.6608     4.9375    24.3944 CH4           1 RES
     407 _CH4        18.2628     5.5014     6.1918 CH4           1 RES
     408 _CH4         7.2336    21.6111    27.7337 CH4           1 RES
     409 _CH4        34.1620    35.4688    37.8154 CH4           1 RES
     410 _CH4         2.0432    22.3934     5.2528 CH4           1 RES
     411 _CH4        13.8425    29.2362    12.7579 CH4           1 RES
     412 _CH4        21.2979    36.5056     2.4279 CH4           1 RES
     413 _CH4         4.3653    31.4538    30.5998 CH4           1 RES
     414 _CH4         5.9003    14.1277    32.9987 CH4           1 RES
     415 _CH4         9.3497     3.2618     3.6968 CH4           1 RES
     416 _CH4        17.4464    13.2419    27.8508 CH4           1 RES
     417 _CH4        32.6677    29.8993    22.1858 CH4           1 RES
     418 _CH4        15.2613     6.3821    19.2148 CH4           1 RES
     419 _CH4         2.0362    32.0316    37.3810 CH4           1 RES
     420 _CH4        14.6561     9.2724    11.8319 CH4           1 RES
     421 _CH4        36.0853    31.8507    35.1095 CH4           1 RES
     422 _CH4        20.0853    30.8958    29.2438 CH4           1 RES
     423 _CH4         6.0914    18.7949    26.0137 CH4           1 RES
     424 _CH4         3.5797    37.2472    11.5148 CH4           1 RES
     425 _CH4        23.4060     6.9385     3.0738 CH4           1 RES
     426 _CH4         5.7055    14.5980    26.5274 CH4           1 RES
     427 _CH4         2.1923     3.1481    25.7034 CH4           1 RES
     428 _CH4         2.5491     5.4218    35.4873 CH4           1 RES
     429 _CH4        12.0564    34.0943    15.8501 CH4           1 RES
     430 _CH4         5.2065     7.4071    12.7036 CH4           1 RES
     431 _CH4        23.9328    27.4398    10.6803 CH4           1 RES
     432 _CH4        18.8053    36.1233    28.1297 CH4           1 RES
     433 _CH4        32.4056     9.8945     9.5800 CH4           1 RES
     434 _CH4         3.3818    29.4464    28.5282 CH4           1 RES
     435 _CH4        11.4898    24.6530    17.5920 CH4           1 RES
     436 _CH4        21.8023     1.9999    27.5981 CH4           1 RES
     437 _CH4         2.0627     6.1662    12.3711 CH4           1 RES
     438 _CH4        18.1310     9.0261    10.2763 CH4           1 RES
     439 _CH4         8.6221    16.0752    24.5446 CH4           1 RES
     440 _CH4         3.7017    34.4366    34.7288 CH4           1 RES
     441 _CH4        12.9067    27.3564    15.9393 CH4           1 RES
     442 _CH4         6.6925    13.5182    36.9702 CH4           1 RES
     443 _CH4         8.1510    10.0540    30.0812 CH4           1 RES
     444 _CH4        14.3336    20.7068     9.4584 CH4           1 RES
     445 _CH4        30.1509    15.8662     9.5484 CH4           1 RES
     446 _CH4         6.5741    11.1955    12.7230 CH4           1 RES
     447 _CH4        18.6282     2.0000    23.1159 CH4           1 RES
     448 _CH4        17.5894    21.7787    20.3986 CH4           1 RES
     449 _CH4         9.7981     7.4637    17.5283 CH4           1 RES
     450 _CH4        27.0123     7.8214     5.0338 CH4           1 RES
     451 _CH4        20.8074    12.5767    22.7628 CH4           1 RES
     452 _CH4        26.8740    23.3244    12.1432 CH4           1 RES
     453 _CH4         7.3271     7.3691    19.6807 CH4           1 RES
     454 _CH4        20.3312    20.8288    34.1297 CH4           1 RES
     455 _CH4        29.3873    27.2443    32.3482 CH4           1 RES
     456 _CH4        29.6318    24.3114    30.9404 CH4           1 RES
     457 _CH4        27.4484    14.7708    26.4333 CH4           1 RES
     458 _CH4        36.7672     8.4114     3.8710 CH4           1 RES
     459 _CH4        25.1721    25.3327    10.6350 CH4           1 RES
     460 _CH4        13.5867    11.4658    26.2103 CH4           1 RES
     461 _CH4        15.2961     2.8162    22.7075 CH4           1 RES
     462 _CH4        24.4146     4.6827    18.4328 CH4           1 RES
     463 _CH4         4.4753    17.9504    33.3875 CH4           1 RES
     464 _CH4        36.1046    32.2030    20.9152 CH4           1 RES
     465 _CH4        34.0483    34.6892    28.5038 CH4           1 RES
     466 _CH4        29.0551    11.0800     8.7105 CH4           1 RES
     467 _CH4        31.1457    28.6373    15.8432 CH4           1 RES
     468 _CH4        18.6000    32.8314    27.4258 CH4           1 RES
     469 _CH4        25.5511    31.3420    16.8241 CH4           1 RES
     470 _CH4         7.5053    23.3749     5.6424 CH4           1 RES
     471 _CH4        11.0099    29.1463    29.2195 CH4           1 RES
     472 _CH4        21.2786    19.0799    21.0347 CH4           1 RES
     473 _CH4        17.4435     6.9436    24.4227 CH4           1 RES
     474 _CH4        13.0460    30.1571    14.6133 CH4           1 RES
     475 _CH4         4.1962    26.0349    14.3113 CH4           1 RES
     476 _CH4        15.5123    20.1129    23.7678 CH4           1 RES
     477 _CH4        34.5886    29.7654    26.4492 CH4           1 RES
     478 _CH4        34.3738    20.7972     8.7458 CH4           1 RES
     479 _CH4        35.0281    10.6128    11.5378 CH4           1 RES
     480 _CH4         7.7293    17.8610    21.7738 CH4           1 RES
     481 _CH4        28.2623    25.3193    33.4369 CH4           1 RES
     482 _CH4        36.0804    15.6360     4.4408 CH4           1 RES
     483 _CH4        17.8762    24.0943    26.6770 CH4           1 RES
     484 _CH4        13.8071     4.2042    20.2694 CH4           1 RES
     485 _CH4        24.7961    34.9342    31.2753 CH4           1 RES
     486 _CH4        15.6344    23.6209     9.5669 CH4           1 RES
     487 _CH4        31.5508    30.0433    28.5887 CH4           1 RES
     488 _CH4        26.3626    28.3239    37.7457 CH4           1 RES
     489 _CH4        13.1548    10.7987     3.9187 CH4           1 RES
     490 _CH4        34.4120    19.9369    35.5034 CH4           1 RES
     491 _CH4         2.5636    29.3267    19.9231 CH4           1 RES
     492 _CH4        37.5278    18.3588    18.5338 CH4           1 RES
     493 _CH4        13.2343    26.0738    20.3482 CH4           1 RES
     494 _CH4        22.2831    37.4515     8.3750 CH4           1 RES
     495 _CH4        28.3057    15.1805     2.6272 CH4           1 RES
     496 _CH4        21.0943    14.2271    35.4960 CH4           1 RES
     497 _CH4         5.2797    14.5630    19.4271 CH4           1 RES
     498 _CH4        25.0873    31.6893    30.6292 CH4           1 RES
     499 _CH4         6.3918    15.9517    10.2035 CH4           1 RES
     500 _CH4        10.5033    15.8185     9.1028 CH4           1 RES
     501 _CH4        14.7639     3.5672     4.3874 CH4           1 RES
     502 _CH4         4.5897    22.8503    33.0055 CH4           1 RES
     503 _CH4        30.0210    21.7403    18.7092 CH4           1 RES
     504 _CH4         8.5533    18.0956    25.4106 CH4           1 RES
     505 _CH4         4.1309    25.6699    24.7674 CH4           1 RES
     506 _CH4         4.7526    13.5177    21.3314 CH4           1 RES
     507 _CH4        30.0216    34.0545    11.1692 CH4           1 RES
     508 _CH4        36.6084    22.4398    17.6903 CH4           1 RES
     509 _CH4        25.2172     1.9999     3.3472 CH4           1 RES
     510 _CH4        20.0410    12.4021    27.7742 CH4           1 RES
     511 _CH4        31.3662    19.9672    36.5044 CH4           1 RES
     512 _CH4         4.0288    20.8289     6.5155 CH4           1 RES
     513 _CH4        31.8638     4.9506    27.4831 CH4           1 RES
     514 _CH4        32.6719    32.1592    27.0010 CH4           1 RES
     515 _CH4        29.5602    13.3590    10.1041 CH4           1 RES
     516 _CH4        22.7008    34.0713    35.2872 CH4           1 RES
     517 _CH4        29.9890    33.2017    27.2880 CH4           1 RES
     518 _CH4        24.5204     4.2089    29.0180 CH4           1 RES
     519 _CH4        23.8682    14.5700    27.7601 CH4           1 RES
     520 _CH4         6.3444    28.8178    19.1578 CH4           1 RES
     521 _CH4        23.8293    37.9800    30.0855 CH4           1 RES
     522 _CH4        27.6321    12.6120    29.1331 CH4           1 RES
     523 _CH4        21.8841    34.8866    22.2930 CH4           1 RES
     524 _CH4        31.7721     7.9794    23.4824 CH4           1 RES
     525 _CH4        21.5400    23.4869    14.4241 CH4           1 RES
     526 _CH4         9.1261     3.3642    23.6949 CH4           1 RES
     527 _CH4         2.1618     8.6388    10.0074 CH4           1 RES
     528 _CH4        21.4676    16.6216    18.4649 CH4           1 RES
     529 _CH4        15.2860    27.4242    20.5843 CH4           1 RES
     530 _CH4        27.0481    12.1886    35.3976 CH4           1 RES
     531 _CH4        35.8145    24.0331    19.9136 CH4           1 RES
     532 _CH4        24.5167    19.6246    17.0179 CH4           1 RES
     533 _CH4        28.3562    37.1330    37.1262 CH4           1 RES
     534 _CH4         2.6750     7.6792    21.4518 CH4           1 RES
     535 _CH4        24.9352    21.4269    27.8440 CH4           1 RES
     536 _CH4         9.8478    28.3518     6.6589 CH4           1 RES
     537 _CH4        14.3742    37.8712    11.4216 CH4           1 RES
     538 _CH4        15.5333    33.8541    15.5619 CH4           1 RES
     539 _CH4         3.8522    27.5997    11.9517 CH4           1 RES
     540 _CH4         2.6006     4.3200     3.9005 CH4           1 RES
     541 _CH4        18.9392    18.0395    20.4477 CH4           1 RES
     542 _CH4        12.6247    13.3551    13.0681 CH4           1 RES
     543 _CH4        22.9933    24.1223    16.6408 CH4           1 RES
     544 _CH4         8.2713    18.1589    13.6569 CH4           1 RES
     545 _CH4        16.5631     3.7613    11.9793 CH4           1 RES
     546 _CH4        33.2118    24.7810    30.3883 CH4           1 RES
     547 _CH4         5.4881    10.5788    33.2039 CH4           1 RES
     548 _CH4        16.2156    13.0379    31.5531 CH4           1 RES
     549 _CH4        11.5250     8.6217    20.0358 CH4           1 RES
     550 _CH4        13.8431    14.5316     2.5648 CH4           1 RES
     551 _CH4        30.9847    12.9332    22.1665 CH4           1 RES
     552 _CH4        31.6900    15.2166     3.1279 CH4           1 RES
     553 _CH4        19.3712    34.3357    12.9948 CH4           1 RES
     554 _CH4        11.0416    21.6823    21.0416 CH4           1 RES
     555 _CH4        10.3271    30.1460    18.5010 CH4           1 RES
     556 _CH4        20.5863    26.5221    10.8128 CH4           1 RES
     557 _CH4        23.5880    29.2480    15.4351 CH4           1 RES
     558 _CH4        20.5646    15.2769    32.9605 CH4           1 RES
     559 _CH4        29.3936    22.3032    10.8842 CH4           1 RES
     560 _CH4        22.5107    24.4007     9.2849 CH4           1 RES
     561 _CH4        33.6243    14.1882     6.5437 CH4           1 RES
     562 _CH4         2.3772    20.5051    28.7274 CH4           1 RES
     563 _CH4        35.8773    24.2792    10.9675 CH4           1 RES
     564 _CH4        30.2808    30.9233    13.9288 CH4           1 RES
     565 _CH4        17.1224    19.7534    14.2084 CH4           1 RES
     566 _CH4        36.6808    16.4177    15.2120 CH4           1 RES
     567 _CH4         3.6423    33.0991    27.0521 CH4           1 RES
     568 _CH4        25.7210    30.2523    12.4631 CH4           1 RES
     569 _CH4         9.3224     8.9916    25.0238 CH4           1 RES
     570 _CH4         3.5261    17.2902    14.6252 CH4           1 RES
     571 _CH4         9.5681     7.3206    12.7029 CH4           1 RES
     572 _CH4        14.8968    29.3898     3.7341 CH4           1 RES
     573 _CH4        19.8837    32.9303     6.6049 CH4           1 RES
     574 _CH4        24.3777    33.8187    25.2221 CH4           1 RES
     575 _CH4        14.8625    18.8544    20.9578 CH4           1 RES
     576 _CH4        36.3790     7.8808    20.6583 CH4           1 RES
     577 _CH4        25.3112    36.6107    13.6631 CH4           1 RES
     578 _CH4        23.6418    34.4141    20.6419 CH4           1 RES
     579 _CH4        22.3482    32.8814    37.1296 CH4           1 RES
     580 _CH4        10.0382    35.7299    35.2402 CH4           1 RES
     581 _CH4         2.0907    28.4658    22.5680 CH4           1 RES
     582 _CH4        21.4854    18.5963    34.7874 CH4           1 RES
     583 _CH4        27.8014    11.1755     4.3389 CH4           1 RES
     584 _CH4        14.0163    19.1696    30.7621 CH4           1 RES
     585 _CH4        12.1615    17.4507    25.0790 CH4           1 RES
     586 _CH4        36.1198    26.7960    22.4301 CH4           1 RES
     587 _CH4        19.5823    10.0381    21.2110 CH4           1 RES
     588 _CH4        28.1484    30.7722    27.5157 CH4           1 RES
     589 _CH4        28.7167    19.3587    18.8370 CH4           1 RES
     590 _CH4         5.6302     5.0555    27.5208 CH4           1 RES
     591 _CH4        18.0580    27.8280    10.1809 CH4           1 RES
     592 _CH4        24.9577     5.5879     9.4613 CH4           1 RES
     593 _CH4        20.9646    32.8217    28.0693 CH4           1 RES
     594 _CH4         4.6880    16.7268    22.7828 CH4           1 RES
     595 _CH4        12.4936    18.2184     6.6053 CH4           1 RES
     596 _CH4        33.2259    11.3878    15.4863 CH4           1 RES
     597 _CH4        18.3261     5.2156    17.1887 CH4           1 RES
     598 _CH4        27.5654     7.3523    22.4113 CH4           1 RES
     599 _CH4        15.1481     3.1754    18.7850 CH4           1 RES
     600 _CH4        30.4889     4.5231    32.7010 CH4           1 RES
     601 _CH4        16.4550    31.3605    26.3204 CH4           1 RES
     602 _CH4        34.8751    37.9799    31.2812 CH4           1 RES
     603 _CH4         7.3606    27.0713    23.4517 CH4           1 RES
     604 _CH4        25.6025    32.3526     9.7219 CH4           1 RES
     605 _CH4        30.0153    34.6110     6.4560 CH4           1 RES
     606 _CH4        33.4689    18.6659    37.1061 CH4           1 RES
     607 _CH4        27.8472    34.7379    16.3870 CH4           1 RES
     608 _CH4        37.1918     5.1263     6.3676 CH4           1 RES
     609 _CH4        29.1242    31.4595    11.4544 CH4           1 RES
     610 _CH4         7.0276    31.1096     6.3006 CH4           1 RES
     611 _CH4        10.8106    30.4354    25.3801 CH4           1 RES
     612 _CH4         9.0893     3.9587    29.2043 CH4           1 RES
     613 _CH4        19.6489     4.0866    24.8870 CH4           1 RES
     614 _CH4        15.4479    17.3082     8.5967 CH4           1 RES
     615 _CH4        23.1607    21.7059    22.3485 CH4           1 RES
     616 _CH4        26.2053     5.0099    31.0326 CH4           1 RES
     617 _CH4         6.2720     8.0749     9.2651 CH4           1 RES
     618 _CH4        13.4147    32.2377     8.6694 CH4           1 RES
     619 _CH4         5.3612    37.9800    15.1254 CH4           1 RES
     620 _CH4        18.7720     3.3176     5.9255 CH4           1 RES
     621 _CH4        21.9911    26.1578    32.5744 CH4           1 RES
     622 _CH4        24.0253    19.9694    14.0920 CH4           1 RES
     623 _CH4        33.0865    26.7676    10.2354 CH4           1 RES
     624 _CH4        25.0371    24.7843    15.9821 CH4           1 RES
     625 _CH4        33.6604    30.3984    11.8915 CH4           1 RES
     626 _CH4        35.3767    20.1349    19.2714 CH4           1 RES
     627 _CH4        31.7395    22.9884    19.5647 CH4           1 RES
     628 _CH4        18.5233     4.1599    34.3058 CH4           1 RES
     629 _CH4         9.6090    15.3013     6.9752 CH4           1 RES
     630 _CH4         6.1337    29.0759     4.7033 CH4           1 RES
     631 _CH4        20.7248    33.3864    15.0643 CH4           1 RES
     632 _CH4         2.8156     4.0224    19.0273 CH4           1 RES
     633 _CH4        37.2603    34.2307     4.6963 CH4           1 RES
     634 _CH4        19.7770    33.6200    18.7941 CH4           1 RES
     635 _CH4        29.2417     5.6524     5.2682 CH4           1 RES
     636 _CH4        31.6069    35.3301    27.0981 CH4           1 RES
     637 _CH4        11.0296    24.2416    19.7767 CH4           1 RES
     638 _CH4        34.8299    21.9090     2.7186 CH4           1 RES
     639 _CH4         3.4704    16.1032    30.4378 CH4           1 RES
     640 _CH4        25.3224     6.8622    21.1558 CH4           1 RES
     641 _CH4        27.0424     6.7095     7.5077 CH4           1 RES
     642 _CH4         6.5328    25.0138    27.8112 CH4           1 RES
     643 _CH4        28.0496    10.0701    34.6163 CH4           1 RES
     644 _CH4        17.0377    36.0821     9.5488 CH4           1 RES
     645 _CH4        23.8542     6.0569    16.5793 CH4           1 RES
     646 _CH4        32.7560     7.3152    37.0844 CH4           1 RES
     647 _CH4        26.9407    14.5337     5.5030 CH4           1 RES
     648 _CH4        14.2796    22.9284    14.3203 CH4           1 RES
     649 _CH4        13.1679    11.6921    23.3411 CH4           1 RES
     650 _CH4        17.9291     6.7664    18.7168 CH4           1 RES
     651 _CH4         7.4790    17.0292    27.5699 CH4           1 RES
     652 _CH4         5.9493     4.6409     5.8421 CH4           1 RES
     653 _CH4        19.5620    24.0695    12.1498 CH4           1 RES
     654 _CH4        15.1111     4.4219    15.2936 CH4           1 RES
     655 _CH4        32.3915    15.6738     8.3861 CH4           1 RES
     656 _CH4        16.3594    16.8338    22.5385 CH4           1 RES
     657 _CH4        26.1524    28.9720    23.0923 CH4           1 RES
     658 _CH4        14.4428    28.9667    18.7442 CH4           1 RES
     659 _CH4         9.9357    12.1554     4.9441 CH4           1 RES
     660 _CH4        14.5687    31.8507    18.3125 CH4           1 RES
     661 _CH4        10.8231     6.3531     6.3484 CH4           1 RES
     662 _CH4         4.6937    12.3896    32.2410 CH4           1 RES
     663 _CH4        24.6537    16.1661    35.6747 CH4           1 RES
     664 _CH4         4.2542    14.5716     2.4194 CH4           1 RES
     665 _CH4        15.2010    28.6157    31.2582 CH4           1 RES
     666 _CH4         2.9807    24.4253    31.8398 CH4           1 RES
     667 _CH4        21.0081    23.9570    22.8929 CH4           1 RES
     668 _CH4        24.3407    30.2503    25.9379 CH4           1 RES
     669 _CH4        29.1541    37.2137     7.7654 CH4           1 RES
     670 _CH4         7.8005     5.5150    14.3350 CH4           1 RES
     671 _CH4        17.0066    20.1924    16.4408 CH4           1 RES
     672 _CH4         6.4656    36.8638    10.2637 CH4           1 RES
     673 _CH4         6.6940    37.9800    31.0189 CH4           1 RES
     674 _CH4        22.8869    22.3935    37.9800 CH4           1 RES
     675 _CH4        13.4360    22.8347    37.6746 CH4           1 RES
     676 _CH4        25.9973    20.7296    19.5096 CH4           1 RES
     677 _CH4        13.7938    33.2279    35.2131 CH4           1 RES
     678 _CH4        27.8024    31.3032    14.4332 CH4           1 RES
     679 _CH4        20.8414    30.0754     3.0148 CH4           1 RES
     680 _CH4        24.4697    12.2726    14.5433 CH4           1 RES
     681 _CH4        19.7355    30.3191    22.7955 CH4           1 RES
     682 _CH4        27.7627    22.8289    19.8433 CH4           1 RES
     683 _CH4         3.9486    12.3266    30.1666 CH4           1 RES
     684 _CH4         8.9513     7.9395    21.6079 CH4           1 RES
     685 _CH4        27.6220    29.5632    29.5604 CH4           1 RES
     686 _CH4        12.2547     3.0309    12.6555 CH4           1 RES
     687 _CH4        23.8266    23.2005    12.8696 CH4           1 RES
     688 _CH4        33.8017    37.9800    27.6607 CH4           1 RES
     689 _CH4        34.4173     7.8727    17.4421 CH4           1 RES
     690 _CH4        17.6217    32.0379     8.3599 CH4           1 RES
     691 _CH4        17.0911    29.7309    24.8673 CH4           1 RES
     692 _CH4         4.0975    18.8236    22.3967 CH4           1 RES
     693 _CH4         9.2322    20.0431    26.1808 CH4           1 RES
     694 _CH4         4.3740    26.5510    28.9437 CH4           1 RES
     695 _CH4        14.3346    34.0107    17.4189 CH4           1 RES
     696 _CH4        30.4221    19.6500    27.1378 CH4           1 RES
     697 _CH4         7.5626    19.1637    31.6385 CH4           1 RES
     698 _CH4         5.0299    28.6982    14.1772 CH4           1 RES
     699 _CH4        15.5499     8.1513     6.8369 CH4           1 RES
     700 _CH4        36.6944    32.1953    18.0526 CH4           1 RES
     701 _CH4        10.6938     4.7921    17.7944 CH4           1 RES
     702 _CH4        27.1766     8.1205    17.5115 CH4           1 RES
     703 _CH4         5.6775    15.9571    31.2731 CH4           1 RES
     704 _CH4        21.6599    25.6697     6.2101 CH4           1 RES
     705 _CH4        14.6254    32.3891    28.2694 CH4           1 RES
     706 _CH4         6.7002    20.2698    37.1824 CH4           1 RES
     707 _CH4        34.9612    15.1922    23.6446 CH4           1 RES
     708 _CH4        23.1950    19.0720    27.3717 CH4           1 RES
     709 _CH4        16.4478    32.0089    23.2792 CH4           1 RES
     710 _CH4        24.5200    16.6335    29.0004 CH4           1 RES
     711 _CH4         3.3431    32.6529     8.0209 CH4           1 RES
     712 _CH4        36.1515    28.2242    26.9081 CH4           1 RES
     713 _CH4        25.7030    16.2958     9.4831 CH4           1 RES
     714 _CH4        11.7381     7.3496    24.5219 CH4           1 RES
     715 _CH4        20.6243     5.6196     7.0440 CH4           1 RES
     716 _CH4        32.0664    27.8181    28.2172 CH4           1 RES
     717 _CH4        19.0153    10.5398     8.6412 CH4           1 RES
     718 _CH4         6.2235    11.2091    25.5532 CH4           1 RES
     719 _CH4        14.2989     6.3720    13.6618 CH4           1 RES
     720 _CH4        27.6839    11.7867    15.3024 CH4           1 RES
     721 _CH4        25.3400    31.7844     7.1962 CH4           1 RES
     722 _CH4        27.3424    29.7154     6.7778 CH4           1 RES
     723 _CH4        30.6535    30.8738    18.6392 CH4           1 RES
     724 _CH4        27.0154    13.4577    31.6322 CH4           1 RES
     725 _CH4         9.5953     6.1024    19.7302 CH4           1 RES
     726 _CH4        18.7725    25.7092    14.2966 CH4           1 RES
     727 _CH4         6.4396    33.1303     4.3186 CH4           1 RES
     728 _CH4         1.9998     6.3251    31.2915 CH4           1 RES
     729 _CH4        30.7857    23.9919    28.3621 CH4           1 RES
     730 _CH4        31.5543    32.3369    34.5873 CH4           1 RES
     731 _CH4        34.2526    21.4539    22.3755 CH4           1 RES
     732 _CH4        18.1490    35.7952    21.6193 CH4           1 RES
     733 _CH4        22.5079    27.2776    25.8998 CH4           1 RES
     734 _CH4        15.4626    37.7138    17.0512 CH4           1 RES
     735 _CH4        17.5329    28.7465    19.8802 CH4           1 RES
     736 _CH4        26.2304     9.7777    28.0041 CH4           1 RES
     737 _CH4        19.5814     7.0289    23.2415 CH4           1 RES
     738 _CH4        21.1117    15.9182    14.2313 CH4           1 RES
     739 _CH4        18.3227    17.7482     2.2965 CH4           1 RES
     740 _CH4        36.5358    25.1039    14.4014 CH4           1 RES
     741 _CH4         9.1210    17.2813    37.0999 CH4           1 RES
     742 _CH4         5.5648    34.0582     7.2646 CH4           1 RES
     743 _CH4        22.7103    32.2549     3.3640 CH4           1 RES
     744 _CH4         8.1571    31.1171    27.7996 CH4           1 RES
     745 _CH4         2.2080    21.1165    17.9145 CH4           1 RES
     746 _CH4         4.4958    35.7350    32.3683 CH4           1 RES
     747 _CH4        28.7502    17.6833    31.3207 CH4           1 RES
     748 _CH4        32.7565     3.0796    35.3371 CH4           1 RES
     749 _CH4        34.1781    23.3688    13.8147 CH4           1 RES
     750 _CH4        30.6322    17.7204     8.0419 CH4           1 RES
     751 _CH4        34.2261    29.1772    14.1815 CH4           1 RES
     752 _CH4        13.1269    32.2797    24.5380 CH4           1 RES
     753 _CH4         6.3518    34.1021    18.0499 CH4           1 RES
     754 _CH4        15.8044    20.3535    19.1014 CH4           1 RES
     755 _CH4        24.0267     4.1818    26.0661 CH4           1 RES
     756 _CH4        32.7730    31.3279    14.4841 CH4           1 RES
     757 _CH4        12.7860     6.4894    20.4194 CH4           1 RES
     758 _CH4        19.8822    14.7275    22.9841 CH4           1 RES
     759 _CH4        37.0361    21.5691    23.9490 CH4           1 RES
     760 _CH4        13.0872    31.8062    33.6447 CH4           1 RES
     761 _CH4        16.1666    26.3881     6.9509 CH4           1 RES
     762 _CH4        26.2512     4.3669    36.5220 CH4           1 RES
     763 _CH4        26.3988    22.5540     8.7347 CH4           1 RES
     764 _CH4        24.4625    36.8273    25.6352 CH4           1 RES
     765 _CH4        20.3156    13.5995    30.7654 CH4           1 RES
     766 _CH4         4.4157    14.0123     6.7066 CH4           1 RES
     767 _CH4        11.8998    32.4210     1.9999 CH4           1 RES
     768 _CH4        10.2768    11.9495     1.9995 CH4           1 RES
     769 _CH4        31.0468    10.7435    12.2900 CH4           1 RES
     770 _CH4         4.8953    11.7655    35.3204 CH4           1 RES
     771 _CH4         1.9999    25.0385    13.7503 CH4           1 RES
     772 _CH4         9.5573    35.7522    28.6092 CH4           1 RES
     773 _CH4         6.1925    37.3629    23.5515 CH4           1 RES
     774 _CH4        37.5537    28.6835    23.2394 CH4           1 RES
     775 _CH4         4.4373    34.8842     9.4114 CH4           1 RES
     776 _CH4        23.1099    10.4099    37.1814 CH4           1 RES
     777 _CH4        12.1395    29.6731    33.2254 CH4           1 RES
     778 _CH4         9.2130    21.8561     2.7242 CH4           1 RES
     779 _CH4        14.3904    33.5851    22.4847 CH4           1 RES
     780 _CH4         8.2094    21.8648    20.0202 CH4           1 RES
     781 _CH4         2.8863    29.5447    17.0422 CH4           1 RES
     782 _CH4        34.8188    27.8994    11.8240 CH4           1 RES
     783 _CH4         9.5075    17.5199     2.0132 CH4           1 RES
     784 _CH4        21.8046    14.5248     8.5081 CH4           1 RES
     785 _CH4        13.4210    23.6161    18.9310 CH4           1 RES
     786 _CH4         4.0979    34.9557    15.7083 CH4           1 RES
     787 _CH4        29.0733     2.2081    15.1367 CH4           1 RES
     788 _CH4         8.0411    22.5877    36.0112 CH4           1 RES
     789 _CH4        16.6021     5.0679     9.5697 CH4           1 RES
     790 _CH4         6.8535    24.3995    25.1060 CH4           1 RES
     791 _CH4         9.1333     3.6811    20.2790 CH4           1 RES
     792 _CH4        30.6977     8.6203    27.7417 CH4           1 RES
     793 _CH4        29.0442     4.0985    11.8442 CH4           1 RES
     794 _CH4        15.1511     8.0762    25.2187 CH4           1 RES
     795 _CH4        16.2024    22.4016    23.3332 CH4           1 RES
     796 _CH4        15.6322    29.7464    27.9598 CH4           1 RES
     797 _CH4        32.6426    14.3133    12.9143 CH4           1 RES
     798 _CH4         4.3510    27.2126    16.6090 CH4           1 RES
     799 _CH4        30.8792    15.0014    33.6777 CH4           1 RES
     800 _CH4         5.0130    18.5265     9.1783 CH4           1 RES
     801 _CH4        35.8330    11.4445    18.5667 CH4           1 RES
     802 _CH4        35.3447    10.0514    30.0389 CH4           1 RES
     803 _CH4        22.1555    18.7092    16.8943 CH4           1 RES
     804 _CH4        27.9208    11.9714    11.2378 CH4           1 RES
     805 _CH4         6.0836    19.6143    15.4535 CH4           1 RES
     806 _CH4         6.5669    36.2722    27.4828 CH4           1 RES
     807 _CH4        16.2916    27.3027    33.4401 CH4           1 RES
     808 _CH4        24.8465    23.0852     6.8619 CH4           1 RES
     809 _CH4        31.6071     6.9816    32.6418 CH4           1 RES
     810 _CH4         7.3331     1.9999     9.0819 CH4           1 RES
     811 _CH4        15.6611    21.5395     5.2500 CH4           1 RES
     812 _CH4        33.7265    10.8697    23.4686 CH4           1 RES
     813 _CH4        17.3605    20.9054     9.3226 CH4           1 RES
     814 _CH4        36.5996    15.0712    28.9283 CH4           1 RES
     815 _CH4        18.1437    15.6225    17.4533 CH4           1 RES
     816 _CH4        18.4300    16.0691    37.6136 CH4           1 RES
     817 _CH4         8.4043    10.0942     7.3460 CH4           1 RES
     818 _CH4        18.0664    34.9180    17.9616 CH4           1 RES
     819 _CH4        25.2032    26.7452    22.2721 CH4           1 RES
     820 _CH4        27.1229     4.3405    17.9598 CH4           1 RES
     821 _CH4        26.8105    27.0086    27.3835 CH4           1 RES
     822 _CH4        34.7440     3.8385    22.4703 CH4           1 RES
     823 _CH4        28.7388     3.6592    25.1320 CH4           1 RES
     824 _CH4        34.6547    23.8788     6.7439 CH4           1 RES
     825 _CH4         9.1536    26.7872    21.1787 CH4           1 RES
     826 _CH4        11.3098    37.5396    34.3795 CH4           1 RES
     827 _CH4         5.0948    22.5880     5.5669 CH4           1 RES
     828 _CH4        12.0504    13.5368    22.6586 CH4           1 RES
     829 _CH4        23.4493    15.5514     6.6753 CH4           1 RES
     830 _CH4        10.1527    20.5562     7.1017 CH4           1 RES
     831 _CH4        11.0357     1.9999    20.1474 CH4           1 RES
     832 _CH4        25.7981    29.1544     4.7747 CH4           1 RES
     833 _CH4        35.6005    37.2564    33.5720 CH4           1 RES
     834 _CH4        25.6618    23.8995    37.9399 CH4           1 RES
     835 _CH4        26.2104    20.3441    13.4325 CH4           1 RES
     836 _CH4         8.0499    22.0380    24.2085 CH4           1 RES
     837 _CH4        26.3960    34.5252    28.0363 CH4           1 RES
     838 _CH4        27.3306    25.7612    10.4162 CH4           1 RES
     839 _CH4        37.8946    22.2334    11.9067 CH4           1 RES
     840 _CH4        30.0336    28.9658    23.1610 CH4           1 RES
     841 _CH4        37.1775    34.4485    24.4759 CH4           1 RES
     842 _CH4         2.0146     5.1317    15.9429 CH4           1 RES
     843 _CH4        34.9017     2.0282    14.0291 CH4           1 RES
     844 _CH4        13.5096    28.8411    27.5277 CH4           1 RES
     845 _CH4        34.3023    14.7923    26.4120 CH4           1 RES
     846 _CH4        35.6465    35.7645    11.5628 CH4           1 RES
     847 _CH4        19.2022    29.9025    27.1662 CH4           1 RES
     848 _CH4        23.0725    16.7097    15.7932 CH4           1 RES
     849 _CH4         2.8835     5.1048    24.0629 CH4           1 RES
     850 _CH4        34.6170    15.5347    12.5953 CH4           1 RES
     851 _CH4        25.5429    10.4316    11.2728 CH4           1 RES
     852 _CH4        29.9697    29.8249    10.2506 CH4           1 RES
     853 _CH4        10.2681    11.7803    19.6037 CH4           1 RES
     854 _CH4        22.0803    27.4843    12.8301 CH4           1 RES
     855 _CH4        12.4640    17.9363     8.8369 CH4           1 RES
     856 _CH4        21.4739    10.6140    19.8627 CH4           1 RES
     857 _CH4        35.3621     9.8549    16.4124 CH4           1 RES
     858 _CH4        21.3253    17.3169    23.0881 CH4           1 RES
     859 _CH4        26.4739    12.3541     5.7364 CH4           1 RES
     860 _CH4         9.0269    19.7911    37.6980 CH4           1 RES
     861 _CH4        10.5335    28.7791    11.2581 CH4           1 RES
     862 _CH4        35.7706    10.0474     5.0223 CH4           1 RES
     863 _CH4        34.3631    21.2782    24.5722 CH4           1 RES
     864 _CH4        19.7384    35.3920    26.2776 CH4           1 RES
     865 _CH4        30.1856    21.3020    29.0594 CH4           1 RES
     866 _CH4        34.8501    13.7018    32.4130 CH4           1 RES
     867 _CH4         3.8208    22.9656    36.4720 CH4           1 RES
     868 _CH4         6.1765     5.0807    10.8552 CH4           1 RES
     869 _CH4        33.0701    22.9960     9.3488 CH4           1 RES
     870 _CH4        28.2111    33.3497    12.7965 CH4           1 RES
     871 _CH4         6.3872     6.1775    32.6106 CH4           1 RES
     872 _CH4        16.4260    23.5614     6.9665 CH4           1 RES
     873 _CH4        10.3785    12.6181    32.3395 CH4           1 RES
     874 _CH4        34.0885    33.3661     2.0692 CH4           1 RES
     875 _CH4        15.6873    20.6796    32.5993 CH4           1 RES
     876 _CH4        31.2627    37.7813    11.5806 CH4           1 RES
     877 _CH4        26.9266    28.3984    10.0515 CH4           1 RES
     878 _CH4        17.8838     9.2965    33.6329 CH4           1 RES
     879 _CH4        34.3793     4.8618    31.8859 CH4           1 RES
     880 _CH4         5.9471    33.7432    35.8359 CH4           1 RES
     881 _CH4        25.0572    26.2276    13.4811 CH4           1 RES
     882 _CH4        17.2701    24.8833    32.5044 CH4           1 RES
     883 _CH4        12.0954     6.9302    17.6641 CH4           1 RES
     884 _CH4         2.0036    17.9648    20.5149 CH4           1 RES
     885 _CH4         6.7298    30.6776    33.2421 CH4           1 RES
     886 _CH4         5.5092    29.3301    27.1457 CH4           1 RES
     887 _CH4        34.6437    24.8367    37.8304 CH4           1 RES
     888 _CH4        35.5016    25.6698    25.5207 CH4           1 RES
     889 _CH4        23.8916    15.0699     3.9049 CH4           1 RES
     890 _CH4         7.9499    29.5077    11.3503 CH4           1 RES
     891 _CH4        18.0698    13.0145    11.6065 CH4           1 RES
     892 _CH4        15.8258    18.3946    17.7055 CH4           1 RES
     893 _CH4        19.8377    32.7517    22.8114 CH4           1 RES
     894 _CH4        20.3413    27.4292    18.1163 CH4           1 RES
     895 _CH4        34.3624    26.9716    17.2315 CH4           1 RES
     896 _CH4        23.0887    24.5040    22.3527 CH4           1 RES
     897 _CH4        11.5350    36.6378    31.1784 CH4           1 RES
     898 _CH4        28.9992    23.7323     7.1144 CH4           1 RES
     899 _CH4        27.5730    22.2075    23.9991 CH4           1 RES
     900 _CH4        11.7094    28.2949     8.9821 CH4           1 RES
@<TRIPOS>BOND
@<TRIPOS>SUBSTRUCTURE
       1 RES             1 RESIDUE    0 1    ROOT      0
